/*--------------------------------*- C++ -*----------------------------------*\
| =========                 |                                                 |
| \\      /  F ield         | OpenFOAM: The Open Source CFD Toolbox           |
|  \\    /   O peration     | Version:  v1706                                 |
|   \\  /    A nd           | Web:      www.OpenFOAM.com                      |
|    \\/     M anipulation  |                                                 |
\*---------------------------------------------------------------------------*/
FoamFile
{
    version     2.0;
    format      ascii;
    class       featureEdgeMesh;
    location    "constant/triSurface";
    object      RocketBody.eMesh;
}
// * * * * * * * * * * * * * * * * * * * * * * * * * * * * * * * * * * * * * //


// points:

64
(
(0.8897479177 3.236591339 13.84081459)
(0.2459498793 3.299999952 13.84081459)
(1.508805275 3.048802376 13.84081459)
(2.079331636 2.743849516 13.84081459)
(2.579402208 2.333452225 13.84081459)
(2.9897995 1.833381772 13.84081459)
(3.294752359 1.262855411 13.84081459)
(3.482541323 0.6437980533 13.84081459)
(3.545949936 -6.146728904e-09 13.84081459)
(3.482541323 -0.6437980533 13.84081459)
(3.294752359 -1.262855411 13.84081459)
(2.9897995 -1.833381772 13.84081459)
(2.579402208 -2.333452225 13.84081459)
(2.079331636 -2.743849516 13.84081459)
(1.508805275 -3.048802376 13.84081459)
(0.8897479177 -3.236591339 13.84081459)
(0.2459498793 -3.299999952 13.84081459)
(-0.3978481889 -3.236591339 13.84081459)
(-1.016905546 -3.048802376 13.84081459)
(-1.587431908 -2.743849516 13.84081459)
(-2.087502241 -2.333452225 13.84081459)
(-2.497899532 -1.833381772 13.84081459)
(-2.802852392 -1.262855411 13.84081459)
(-2.990641356 -0.6437980533 13.84081459)
(-3.054049969 -6.146728904e-09 13.84081459)
(-2.990641356 0.6437980533 13.84081459)
(-2.802852392 1.262855411 13.84081459)
(-2.497899532 1.833381772 13.84081459)
(-2.087502241 2.333452225 13.84081459)
(-1.587431908 2.743849516 13.84081459)
(-1.016905546 3.048802376 13.84081459)
(-0.3978481889 3.236591339 13.84081459)
(0.2459498793 3.299999952 27.84081459)
(0.8897479177 3.236591339 27.84081459)
(1.508805275 3.048802376 27.84081459)
(2.079331636 2.743849516 27.84081459)
(2.579402208 2.333452225 27.84081459)
(2.9897995 1.833381772 27.84081459)
(3.294752359 1.262855411 27.84081459)
(3.482541323 0.6437980533 27.84081459)
(3.545949936 -6.146728904e-09 27.84081459)
(3.482541323 -0.6437980533 27.84081459)
(3.294752359 -1.262855411 27.84081459)
(2.9897995 -1.833381772 27.84081459)
(2.579402208 -2.333452225 27.84081459)
(2.079331636 -2.743849516 27.84081459)
(1.508805275 -3.048802376 27.84081459)
(0.8897479177 -3.236591339 27.84081459)
(0.2459498793 -3.299999952 27.84081459)
(-0.3978481889 -3.236591339 27.84081459)
(-1.016905546 -3.048802376 27.84081459)
(-1.587431908 -2.743849516 27.84081459)
(-2.087502241 -2.333452225 27.84081459)
(-2.497899532 -1.833381772 27.84081459)
(-2.802852392 -1.262855411 27.84081459)
(-2.990641356 -0.6437980533 27.84081459)
(-3.054049969 -6.146728904e-09 27.84081459)
(-2.990641356 0.6437980533 27.84081459)
(-2.802852392 1.262855411 27.84081459)
(-2.497899532 1.833381772 27.84081459)
(-2.087502241 2.333452225 27.84081459)
(-1.587431908 2.743849516 27.84081459)
(-1.016905546 3.048802376 27.84081459)
(-0.3978481889 3.236591339 27.84081459)
)


// edges:

64
(
(32 33)
(33 34)
(34 35)
(35 36)
(36 37)
(37 38)
(38 39)
(39 40)
(40 41)
(41 42)
(42 43)
(43 44)
(44 45)
(45 46)
(46 47)
(47 48)
(48 49)
(49 50)
(50 51)
(51 52)
(52 53)
(53 54)
(54 55)
(55 56)
(56 57)
(57 58)
(58 59)
(59 60)
(60 61)
(61 62)
(63 62)
(32 63)
(0 1)
(2 0)
(3 2)
(4 3)
(5 4)
(6 5)
(7 6)
(8 7)
(9 8)
(10 9)
(11 10)
(12 11)
(13 12)
(14 13)
(15 14)
(16 15)
(17 16)
(18 17)
(19 18)
(20 19)
(21 20)
(22 21)
(23 22)
(24 23)
(25 24)
(26 25)
(27 26)
(28 27)
(29 28)
(30 29)
(31 30)
(1 31)
)

// * * * * * * * * * * * * * * * * * * * * * * * * * * * * * * * * * * * * * //


// ************************************************************************* //
