/*--------------------------------*- C++ -*----------------------------------*\
| =========                 |                                                 |
| \\      /  F ield         | OpenFOAM: The Open Source CFD Toolbox           |
|  \\    /   O peration     | Version:  v1706                                 |
|   \\  /    A nd           | Web:      www.OpenFOAM.com                      |
|    \\/     M anipulation  |                                                 |
\*---------------------------------------------------------------------------*/
FoamFile
{
    version     2.0;
    format      ascii;
    class       featureEdgeMesh;
    location    "constant/triSurface";
    object      ShieldFaceOut.eMesh;
}
// * * * * * * * * * * * * * * * * * * * * * * * * * * * * * * * * * * * * * //


// points:

156
(
(10.60660172 10.60660172 0.1999998093)
(10.60660172 10.60660172 10.19999981)
(12.47204399 8.333553314 10.19999981)
(12.47204399 8.333553314 0.1999998093)
(15 0 0.1999998093)
(15 0 10.19999981)
(14.71177864 -2.926354885 10.19999981)
(14.71177864 -2.926354885 0.1999998093)
(5.740252018 -13.85819244 0.1999998093)
(5.740252018 -13.85819244 10.19999981)
(2.926354885 -14.71177864 10.19999981)
(2.926354885 -14.71177864 0.1999998093)
(-5.740252018 -13.85819244 0.1999998093)
(-5.740252018 -13.85819244 10.19999981)
(-4.333303452 -14.28498554 10.19999981)
(-14.71177864 -2.926354885 10.19999981)
(-14.71177864 -2.926354885 0.1999998093)
(-5.740252018 -13.8581934 0.1865568161)
(-4.333303452 -14.2849865 0.1865568161)
(0 15 0.1999998093)
(2.926354885 14.71177864 0.1999998093)
(5.740252018 13.85819244 0.1999998093)
(8.333553314 12.47204399 0.1999998093)
(13.85819244 5.740252018 0.1999998093)
(14.71177864 2.926354885 0.1999998093)
(13.85819244 -5.740252018 0.1999998093)
(12.47204399 -8.333553314 0.1999998093)
(10.60660172 -10.60660172 0.1999998093)
(8.333553314 -12.47204399 0.1999998093)
(0 -15 0.1999998093)
(-2.926354885 -14.71177864 0.1999998093)
(-15 0 0.1999998093)
(-14.71177864 2.926354885 0.1999998093)
(-13.85819244 5.740252018 0.1999998093)
(-12.47204399 8.333553314 0.1999998093)
(-10.60660172 10.60660172 0.1999998093)
(-8.333553314 12.47204399 0.1999998093)
(-5.740252018 13.85819244 0.1999998093)
(-2.926354885 14.71177864 0.1999998093)
(-8.333553314 12.47204304 0.1865568161)
(-9.470077515 11.5393219 0.1865568161)
(-10.60660172 10.60660076 0.1865568161)
(-11.53932285 9.470076561 0.1865568161)
(14.28498554 4.333302021 0.1865568161)
(13.85819244 5.740250587 0.1865568161)
(-14.85588932 -1.463178754 0.1865568161)
(-14.71177864 -2.926356316 0.1865568161)
(-12.47204399 8.333552361 0.1865568161)
(-13.16511917 7.036901474 0.1865568161)
(-13.85819244 5.740250587 0.1865568161)
(-14.28498554 4.333302021 0.1865568161)
(-14.71177864 2.926353455 0.1865568161)
(-14.85588932 1.463176131 0.1865568161)
(13.16511917 7.036901474 0.1865568161)
(12.47204399 8.333552361 0.1865568161)
(-13.85819244 -5.740252018 10.19999981)
(-14.28498554 -4.333303452 10.19999981)
(-14.28498554 -4.333304882 0.1865568161)
(-13.85819244 -5.740252972 0.1865568161)
(-15 -1.313104462e-06 0.1865568161)
(-13.16511917 -7.036902905 10.19999981)
(-13.16511917 -7.036904335 0.1865568161)
(11.53932285 9.470077515 10.19999981)
(11.53932285 9.470076561 0.1865568161)
(10.60660172 10.60660076 0.1865568161)
(-12.47204399 -8.333553314 10.19999981)
(-12.47204399 -8.333554268 0.1865568161)
(-11.53932285 -9.470077515 10.19999981)
(-11.53932285 -9.470078468 0.1865568161)
(-9.470077515 -11.53932285 10.19999981)
(-10.60660172 -10.60660172 10.19999981)
(-10.60660172 -10.60660267 0.1865568161)
(-9.470077515 -11.53932381 0.1865568161)
(-7.036902905 -13.16511917 10.19999981)
(-8.333553314 -12.47204399 10.19999981)
(-8.333553314 -12.47204494 0.1865568161)
(-7.036902905 -13.16511917 0.1865568161)
(9.470077515 11.5393219 0.1865568161)
(8.333553314 12.47204304 0.1865568161)
(-2.926354885 -14.71177959 0.1865568161)
(-1.463177443 -14.85589027 0.1865568161)
(0 -15.00000191 0.1865568161)
(1.463177443 -14.85589027 0.1865568161)
(7.036902905 13.16511822 0.1865568161)
(5.740252018 13.85819149 0.1865568161)
(4.333303452 -14.28498554 10.19999981)
(2.926354885 -14.71177959 0.1865568161)
(4.333303452 -14.2849865 0.1865568161)
(5.740252018 -13.8581934 0.1865568161)
(7.036902905 -13.16511917 0.1865568161)
(8.333553314 -12.47204494 0.1865568161)
(9.470077515 -11.53932381 0.1865568161)
(4.333303452 14.28498459 0.1865568161)
(2.926354885 14.71177769 0.1865568161)
(10.60660172 -10.60660267 0.1865568161)
(11.53932285 -9.470078468 0.1865568161)
(12.47204399 -8.333554268 0.1865568161)
(13.16511917 -7.036904335 0.1865568161)
(13.85819244 -5.740252972 0.1865568161)
(14.28498554 -4.333304882 0.1865568161)
(14.85588932 -1.463177443 10.19999981)
(14.71177864 -2.926356316 0.1865568161)
(14.85588932 -1.463178754 0.1865568161)
(1.463177443 14.85588837 0.1865568161)
(0 14.99999905 0.1865568161)
(15 -1.313104462e-06 0.1865568161)
(14.85588932 1.463176131 0.1865568161)
(14.71177864 2.926353455 0.1865568161)
(-5.740252018 13.85819149 0.1865568161)
(-7.036902905 13.16511822 0.1865568161)
(-2.926354885 14.71177769 0.1865568161)
(-4.333303452 14.28498459 0.1865568161)
(-1.463177443 14.85588837 0.1865568161)
(7.036902905 13.16511917 10.19999981)
(5.740252018 13.85819244 10.19999981)
(13.16511917 7.036902905 10.19999981)
(13.85819244 -5.740252018 10.19999981)
(14.28498554 -4.333303452 10.19999981)
(12.47204399 -8.333553314 10.19999981)
(13.16511917 -7.036902905 10.19999981)
(10.60660172 -10.60660172 10.19999981)
(11.53932285 -9.470077515 10.19999981)
(8.333553314 -12.47204399 10.19999981)
(9.470077515 -11.53932285 10.19999981)
(7.036902905 -13.16511917 10.19999981)
(0 -15 10.19999981)
(1.463177443 -14.85588932 10.19999981)
(-2.926354885 -14.71177864 10.19999981)
(-1.463177443 -14.85588932 10.19999981)
(-15 0 10.19999981)
(-14.85588932 -1.463177443 10.19999981)
(-13.16511917 7.036902905 10.19999981)
(-13.85819244 5.740252018 10.19999981)
(-7.036902905 13.16511917 10.19999981)
(-8.333553314 12.47204399 10.19999981)
(2.926354885 14.71177864 10.19999981)
(1.463177443 14.85588932 10.19999981)
(0 15 10.19999981)
(4.333303452 14.28498554 10.19999981)
(8.333553314 12.47204399 10.19999981)
(9.470077515 11.53932285 10.19999981)
(13.85819244 5.740252018 10.19999981)
(14.71177864 2.926354885 10.19999981)
(14.28498554 4.333303452 10.19999981)
(14.85588932 1.463177443 10.19999981)
(-14.71177864 2.926354885 10.19999981)
(-14.85588932 1.463177443 10.19999981)
(-14.28498554 4.333303452 10.19999981)
(-12.47204399 8.333553314 10.19999981)
(-10.60660172 10.60660172 10.19999981)
(-11.53932285 9.470077515 10.19999981)
(-9.470077515 11.53932285 10.19999981)
(-5.740252018 13.85819244 10.19999981)
(-2.926354885 14.71177864 10.19999981)
(-4.333303452 14.28498554 10.19999981)
(-1.463177443 14.85588932 10.19999981)
)


// edges:

161
(
(113 114)
(115 2)
(116 117)
(117 6)
(118 119)
(119 116)
(120 121)
(121 118)
(122 123)
(123 120)
(9 124)
(124 122)
(125 126)
(126 10)
(127 128)
(128 125)
(14 127)
(129 130)
(130 15)
(131 132)
(133 134)
(135 136)
(136 137)
(114 138)
(138 135)
(139 113)
(1 140)
(140 139)
(141 115)
(142 143)
(143 141)
(5 144)
(144 142)
(145 146)
(146 129)
(132 147)
(147 145)
(148 131)
(149 150)
(150 148)
(134 151)
(151 149)
(152 133)
(153 154)
(154 152)
(137 155)
(155 153)
(19 20)
(20 21)
(21 22)
(22 0)
(0 1)
(2 3)
(3 23)
(23 24)
(24 4)
(4 5)
(6 7)
(7 25)
(25 26)
(26 27)
(27 28)
(28 8)
(8 9)
(10 11)
(11 29)
(29 30)
(30 12)
(12 13)
(13 14)
(15 16)
(16 31)
(31 32)
(32 33)
(33 34)
(34 35)
(35 36)
(36 37)
(37 38)
(38 19)
(39 40)
(41 42)
(43 44)
(45 46)
(47 48)
(49 50)
(51 52)
(53 54)
(55 56)
(57 58)
(59 45)
(56 15)
(46 57)
(60 55)
(58 61)
(1 62)
(63 64)
(65 60)
(61 66)
(67 65)
(66 68)
(69 70)
(71 72)
(73 74)
(75 76)
(77 78)
(70 67)
(68 71)
(79 80)
(81 82)
(83 84)
(74 69)
(72 75)
(85 10)
(86 87)
(88 89)
(90 91)
(92 93)
(13 73)
(76 17)
(17 13)
(94 95)
(96 97)
(98 99)
(14 18)
(18 79)
(100 6)
(101 102)
(103 104)
(105 106)
(107 43)
(80 81)
(44 53)
(62 2)
(54 63)
(64 77)
(108 109)
(52 59)
(106 107)
(110 111)
(104 112)
(50 51)
(5 100)
(102 105)
(48 49)
(99 101)
(42 47)
(97 98)
(40 41)
(95 96)
(109 39)
(91 94)
(111 108)
(89 90)
(112 110)
(9 85)
(87 88)
(93 103)
(84 92)
(78 83)
(82 86)
)

// * * * * * * * * * * * * * * * * * * * * * * * * * * * * * * * * * * * * * //


// ************************************************************************* //
