/*--------------------------------*- C++ -*----------------------------------*\
| =========                 |                                                 |
| \\      /  F ield         | OpenFOAM: The Open Source CFD Toolbox           |
|  \\    /   O peration     | Version:  v1706                                 |
|   \\  /    A nd           | Web:      www.OpenFOAM.com                      |
|    \\/     M anipulation  |                                                 |
\*---------------------------------------------------------------------------*/
FoamFile
{
    version     2.0;
    format      ascii;
    class       extendedFeatureEdgeMesh;
    location    "constant/extendedFeatureEdgeMesh";
    object      RocketFaceDown.extendedFeatureEdgeMesh;
}
// * * * * * * * * * * * * * * * * * * * * * * * * * * * * * * * * * * * * * //

// points

32
(
(-0.3978481889 3.236591339 13.84081459)
(0.2459498793 3.299999952 13.84081459)
(0.8897479177 3.236591339 13.84081459)
(1.508805275 3.048802376 13.84081459)
(2.079331636 2.743849516 13.84081459)
(2.579402208 2.333452225 13.84081459)
(2.9897995 1.833381772 13.84081459)
(3.294752359 1.262855411 13.84081459)
(3.482541323 0.6437980533 13.84081459)
(3.545949936 -6.146728904e-09 13.84081459)
(3.482541323 -0.6437980533 13.84081459)
(3.294752359 -1.262855411 13.84081459)
(2.9897995 -1.833381772 13.84081459)
(2.579402208 -2.333452225 13.84081459)
(2.079331636 -2.743849516 13.84081459)
(1.508805275 -3.048802376 13.84081459)
(0.8897479177 -3.236591339 13.84081459)
(0.2459498793 -3.299999952 13.84081459)
(-0.3978481889 -3.236591339 13.84081459)
(-1.016905546 -3.048802376 13.84081459)
(-1.587431908 -2.743849516 13.84081459)
(-2.087502241 -2.333452225 13.84081459)
(-2.497899532 -1.833381772 13.84081459)
(-2.802852392 -1.262855411 13.84081459)
(-2.990641356 -0.6437980533 13.84081459)
(-3.054049969 -6.146728904e-09 13.84081459)
(-2.990641356 0.6437980533 13.84081459)
(-2.802852392 1.262855411 13.84081459)
(-2.497899532 1.833381772 13.84081459)
(-2.087502241 2.333452225 13.84081459)
(-1.587431908 2.743849516 13.84081459)
(-1.016905546 3.048802376 13.84081459)
)

// edges

32
(
(0 1)
(1 2)
(2 3)
(3 4)
(4 5)
(5 6)
(6 7)
(7 8)
(8 9)
(9 10)
(10 11)
(11 12)
(12 13)
(13 14)
(14 15)
(15 16)
(16 17)
(17 18)
(18 19)
(19 20)
(20 21)
(21 22)
(22 23)
(23 24)
(24 25)
(25 26)
(26 27)
(27 28)
(28 29)
(29 30)
(30 31)
(31 0)
)

// concaveStart mixedStart nonFeatureStart
0 0 0
// internalStart flatStart openStart multipleStart
0 0 0 32
// normals
16{(0 0 -1)}
// normal volume types

16
(
0
0
0
0
0
0
0
0
0
0
0
0
0
0
0
0
)

// normalDirections

32
(
1(1)
1(1)
1(1)
1(1)
1(1)
1(1)
1(1)
1(1)
1(1)
1(1)
1(1)
1(1)
1(1)
1(1)
1(1)
1(1)
1(1)
1(1)
1(1)
1(1)
1(1)
1(1)
1(1)
1(1)
1(1)
1(1)
1(1)
1(1)
1(1)
1(1)
1(1)
1(1)
)

// edgeNormals

32
(
1(0)
1(0)
1(1)
1(1)
1(2)
1(2)
1(3)
1(3)
1(4)
1(4)
1(5)
1(5)
1(6)
1(6)
1(7)
1(7)
1(8)
1(8)
1(9)
1(9)
1(10)
1(10)
1(11)
1(11)
1(12)
1(12)
1(13)
1(13)
1(14)
1(14)
1(15)
1(15)
)

// featurePointNormals
0()
// featurePointEdges
0()
// regionEdges

32
(
0
1
2
3
4
5
6
7
8
9
10
11
12
13
14
15
16
17
18
19
20
21
22
23
24
25
26
27
28
29
30
31
)



// ************************************************************************* //
