/*--------------------------------*- C++ -*----------------------------------*\
| =========                 |                                                 |
| \\      /  F ield         | OpenFOAM: The Open Source CFD Toolbox           |
|  \\    /   O peration     | Version:  v1706                                 |
|   \\  /    A nd           | Web:      www.OpenFOAM.com                      |
|    \\/     M anipulation  |                                                 |
\*---------------------------------------------------------------------------*/
FoamFile
{
    version     2.0;
    format      ascii;
    class       extendedFeatureEdgeMesh;
    location    "constant/extendedFeatureEdgeMesh";
    object      RocketBody.extendedFeatureEdgeMesh;
}
// * * * * * * * * * * * * * * * * * * * * * * * * * * * * * * * * * * * * * //

// points

64
(
(0.8897479177 3.236591339 13.84081459)
(0.2459498793 3.299999952 13.84081459)
(1.508805275 3.048802376 13.84081459)
(2.079331636 2.743849516 13.84081459)
(2.579402208 2.333452225 13.84081459)
(2.9897995 1.833381772 13.84081459)
(3.294752359 1.262855411 13.84081459)
(3.482541323 0.6437980533 13.84081459)
(3.545949936 -6.146728904e-09 13.84081459)
(3.482541323 -0.6437980533 13.84081459)
(3.294752359 -1.262855411 13.84081459)
(2.9897995 -1.833381772 13.84081459)
(2.579402208 -2.333452225 13.84081459)
(2.079331636 -2.743849516 13.84081459)
(1.508805275 -3.048802376 13.84081459)
(0.8897479177 -3.236591339 13.84081459)
(0.2459498793 -3.299999952 13.84081459)
(-0.3978481889 -3.236591339 13.84081459)
(-1.016905546 -3.048802376 13.84081459)
(-1.587431908 -2.743849516 13.84081459)
(-2.087502241 -2.333452225 13.84081459)
(-2.497899532 -1.833381772 13.84081459)
(-2.802852392 -1.262855411 13.84081459)
(-2.990641356 -0.6437980533 13.84081459)
(-3.054049969 -6.146728904e-09 13.84081459)
(-2.990641356 0.6437980533 13.84081459)
(-2.802852392 1.262855411 13.84081459)
(-2.497899532 1.833381772 13.84081459)
(-2.087502241 2.333452225 13.84081459)
(-1.587431908 2.743849516 13.84081459)
(-1.016905546 3.048802376 13.84081459)
(-0.3978481889 3.236591339 13.84081459)
(0.2459498793 3.299999952 27.84081459)
(0.8897479177 3.236591339 27.84081459)
(1.508805275 3.048802376 27.84081459)
(2.079331636 2.743849516 27.84081459)
(2.579402208 2.333452225 27.84081459)
(2.9897995 1.833381772 27.84081459)
(3.294752359 1.262855411 27.84081459)
(3.482541323 0.6437980533 27.84081459)
(3.545949936 -6.146728904e-09 27.84081459)
(3.482541323 -0.6437980533 27.84081459)
(3.294752359 -1.262855411 27.84081459)
(2.9897995 -1.833381772 27.84081459)
(2.579402208 -2.333452225 27.84081459)
(2.079331636 -2.743849516 27.84081459)
(1.508805275 -3.048802376 27.84081459)
(0.8897479177 -3.236591339 27.84081459)
(0.2459498793 -3.299999952 27.84081459)
(-0.3978481889 -3.236591339 27.84081459)
(-1.016905546 -3.048802376 27.84081459)
(-1.587431908 -2.743849516 27.84081459)
(-2.087502241 -2.333452225 27.84081459)
(-2.497899532 -1.833381772 27.84081459)
(-2.802852392 -1.262855411 27.84081459)
(-2.990641356 -0.6437980533 27.84081459)
(-3.054049969 -6.146728904e-09 27.84081459)
(-2.990641356 0.6437980533 27.84081459)
(-2.802852392 1.262855411 27.84081459)
(-2.497899532 1.833381772 27.84081459)
(-2.087502241 2.333452225 27.84081459)
(-1.587431908 2.743849516 27.84081459)
(-1.016905546 3.048802376 27.84081459)
(-0.3978481889 3.236591339 27.84081459)
)

// edges

64
(
(32 33)
(33 34)
(34 35)
(35 36)
(36 37)
(37 38)
(38 39)
(39 40)
(40 41)
(41 42)
(42 43)
(43 44)
(44 45)
(45 46)
(46 47)
(47 48)
(48 49)
(49 50)
(50 51)
(51 52)
(52 53)
(53 54)
(54 55)
(55 56)
(56 57)
(57 58)
(58 59)
(59 60)
(60 61)
(61 62)
(63 62)
(32 63)
(0 1)
(2 0)
(3 2)
(4 3)
(5 4)
(6 5)
(7 6)
(8 7)
(9 8)
(10 9)
(11 10)
(12 11)
(13 12)
(14 13)
(15 14)
(16 15)
(17 16)
(18 17)
(19 18)
(20 19)
(21 20)
(22 21)
(23 22)
(24 23)
(25 24)
(26 25)
(27 26)
(28 27)
(29 28)
(30 29)
(31 30)
(1 31)
)

// concaveStart mixedStart nonFeatureStart
0 0 0
// internalStart flatStart openStart multipleStart
32 32 32 64
// normals

80
(
(0.09801720299 0.9951847205 0)
(0.2902846306 0.9569403499 0)
(0.4713969368 0.8819211575 0)
(0.6343932647 0.7730104694 0)
(0.7730103952 0.634393355 0)
(0.8819211575 0.4713969368 0)
(0.9569403499 0.2902846306 0)
(0.9951847208 0.09801719981 0)
(0.9951847206 -0.09801720167 0)
(0.9569403499 -0.2902846306 0)
(0.8819211575 -0.4713969368 0)
(0.7730103952 -0.634393355 0)
(0.6343932647 -0.7730104694 0)
(0.4713969368 -0.8819211575 0)
(0.2902846306 -0.9569403499 0)
(0.09801720299 -0.9951847205 0)
(-0.09801719849 -0.9951847209 0)
(-0.2902846306 -0.9569403499 0)
(-0.4713969368 -0.8819211575 0)
(-0.6343934454 -0.773010321 0)
(-0.7730103952 -0.634393355 0)
(-0.8819211575 -0.4713969368 0)
(-0.9569403499 -0.2902846306 0)
(-0.9951847206 -0.09801720167 0)
(-0.9951847208 0.09801719981 0)
(-0.9569403499 0.2902846306 0)
(-0.8819211575 0.4713969368 0)
(-0.7730103952 0.634393355 0)
(-0.6343934454 0.773010321 0)
(-0.4713969368 0.8819211575 0)
(-0.2902846306 0.9569403499 0)
(-0.09801719849 0.9951847209 0)
(0.09801720299 0.9951847205 -0)
(0 0 1)
(0.2902846306 0.9569403499 -0)
(0.4713969368 0.8819211575 -0)
(0 0 1)
(0.6343932647 0.7730104694 -0)
(0.7730103952 0.634393355 -0)
(0 0 1)
(0.8819211575 0.4713969368 -0)
(0.9569403499 0.2902846306 -0)
(0 0 1)
(0.9951847208 0.09801719981 -0)
(0.9951847206 -0.09801720167 0)
(0 0 1)
(0.9569403499 -0.2902846306 0)
(0.8819211575 -0.4713969368 0)
(0 0 1)
(0.7730103952 -0.634393355 0)
(0.6343932647 -0.7730104694 0)
(0 0 1)
(0.4713969368 -0.8819211575 0)
(0.2902846306 -0.9569403499 0)
(0 0 1)
(0.09801720299 -0.9951847205 0)
(-0.09801719849 -0.9951847209 0)
(0 0 1)
(-0.2902846306 -0.9569403499 0)
(-0.4713969368 -0.8819211575 0)
(0 0 1)
(-0.6343934454 -0.773010321 0)
(-0.7730103952 -0.634393355 0)
(0 0 1)
(-0.8819211575 -0.4713969368 0)
(-0.9569403499 -0.2902846306 0)
(0 0 1)
(-0.9951847206 -0.09801720167 0)
(-0.9951847208 0.09801719981 0)
(0 0 1)
(-0.9569403499 0.2902846306 0)
(-0.8819211575 0.4713969368 0)
(0 0 1)
(-0.7730103952 0.634393355 0)
(-0.6343934454 0.773010321 0)
(0 0 1)
(-0.4713969368 0.8819211575 0)
(0 0 1)
(-0.2902846306 0.9569403499 0)
(-0.09801719849 0.9951847209 0)
)

// normal volume types

80
(
0
0
0
0
0
0
0
0
0
0
0
0
0
0
0
0
0
0
0
0
0
0
0
0
0
0
0
0
0
0
0
0
0
0
0
0
0
0
0
0
0
0
0
0
0
0
0
0
0
0
0
0
0
0
0
0
0
0
0
0
0
0
0
0
0
0
0
0
0
0
0
0
0
0
0
0
0
0
0
0
)

// normalDirections

64
(
2(1 -1)
2(1 -1)
2(1 -1)
2(1 -1)
2(1 -1)
2(1 -1)
2(1 -1)
2(1 -1)
2(1 -1)
2(1 -1)
2(1 -1)
2(1 -1)
2(1 -1)
2(1 -1)
2(1 -1)
2(1 -1)
2(1 -1)
2(1 -1)
2(1 -1)
2(1 -1)
2(1 -1)
2(1 -1)
2(1 -1)
2(1 -1)
2(1 -1)
2(1 -1)
2(1 -1)
2(1 -1)
2(1 -1)
2(1 -1)
2(1 -1)
2(1 -1)
1(1)
1(1)
1(1)
1(1)
1(1)
1(1)
1(1)
1(1)
1(1)
1(1)
1(1)
1(1)
1(1)
1(1)
1(1)
1(1)
1(1)
1(1)
1(1)
1(1)
1(1)
1(1)
1(1)
1(1)
1(1)
1(1)
1(1)
1(1)
1(1)
1(1)
1(1)
1(1)
)

// edgeNormals

64
(
2(32 33)
2(34 33)
2(35 36)
2(37 36)
2(38 39)
2(40 39)
2(41 42)
2(43 42)
2(44 45)
2(46 45)
2(47 48)
2(49 48)
2(50 51)
2(52 51)
2(53 54)
2(55 54)
2(56 57)
2(58 57)
2(59 60)
2(61 60)
2(62 63)
2(64 63)
2(65 66)
2(67 66)
2(68 69)
2(70 69)
2(71 72)
2(73 72)
2(74 75)
2(76 75)
2(77 78)
2(77 79)
1(0)
1(1)
1(2)
1(3)
1(4)
1(5)
1(6)
1(7)
1(8)
1(9)
1(10)
1(11)
1(12)
1(13)
1(14)
1(15)
1(16)
1(17)
1(18)
1(19)
1(20)
1(21)
1(22)
1(23)
1(24)
1(25)
1(26)
1(27)
1(28)
1(29)
1(30)
1(31)
)

// featurePointNormals
0()
// featurePointEdges
0()
// regionEdges

32
(
32
33
34
35
36
37
38
39
40
41
42
43
44
45
46
47
48
49
50
51
52
53
54
55
56
57
58
59
60
61
62
63
)



// ************************************************************************* //
