/*--------------------------------*- C++ -*----------------------------------*\
| =========                 |                                                 |
| \\      /  F ield         | OpenFOAM: The Open Source CFD Toolbox           |
|  \\    /   O peration     | Version:  v1706                                 |
|   \\  /    A nd           | Web:      www.OpenFOAM.com                      |
|    \\/     M anipulation  |                                                 |
\*---------------------------------------------------------------------------*/
FoamFile
{
    version     2.0;
    format      ascii;
    class       extendedFeatureEdgeMesh;
    location    "constant/extendedFeatureEdgeMesh";
    object      SheildBody.extendedFeatureEdgeMesh;
}
// * * * * * * * * * * * * * * * * * * * * * * * * * * * * * * * * * * * * * //

// points

300
(
(10.60660172 10.60660172 10.19999981)
(10.60660172 10.60660172 0.1999998093)
(12.47204399 8.333553314 0.1999998093)
(12.47204399 8.333553314 10.19999981)
(15 0 10.19999981)
(15 0 0.1999998093)
(14.71177864 -2.926354885 0.1999998093)
(14.71177864 -2.926354885 10.19999981)
(5.740252018 -13.85819244 10.19999981)
(5.740252018 -13.85819244 0.1999998093)
(2.926354885 -14.71177864 0.1999998093)
(2.926354885 -14.71177864 10.19999981)
(-5.740252018 -13.85819244 10.19999981)
(-5.740252018 -13.85819244 0.1999998093)
(-14.71177864 -2.926354885 0.1999998093)
(-14.71177864 -2.926354885 10.19999981)
(-4.333303452 -14.28498554 10.19999981)
(-5.740252018 -13.8581934 0.1865568161)
(-4.333303452 -14.2849865 0.1865568161)
(1.284324884 13.0399704 10.06289864)
(2.568649769 12.91347504 10.06289864)
(-9.961071967e-09 13.16646481 10.06289864)
(3.803619146 12.53885174 10.06289864)
(5.038588047 12.16422749 10.06289864)
(6.176742554 11.55587196 10.06289864)
(7.314896107 10.94751549 10.06289864)
(8.312495232 10.12880611 10.06289864)
(9.310096741 9.310096741 10.06289864)
(10.12880611 8.312495232 10.06289864)
(10.94751549 7.314896107 10.06289864)
(11.55587196 6.176742554 10.06289864)
(12.16422749 5.038588047 10.06289864)
(12.53885174 3.803619146 10.06289864)
(12.91347504 2.568649769 10.06289864)
(13.0399704 1.284324884 10.06289864)
(13.16646481 -1.479930845e-08 10.06289864)
(13.0399704 -1.284324884 10.06289864)
(12.91347504 -2.568649769 10.06289864)
(12.53885174 -3.803619146 10.06289864)
(12.16422749 -5.038588047 10.06289864)
(11.55587196 -6.176742554 10.06289864)
(10.94751549 -7.314896107 10.06289864)
(10.12880611 -8.312495232 10.06289864)
(9.310096741 -9.310096741 10.06289864)
(8.312495232 -10.12880611 10.06289864)
(7.314896107 -10.94751549 10.06289864)
(6.176742554 -11.55587196 10.06289864)
(5.038588047 -12.16422749 10.06289864)
(3.803619146 -12.53885174 10.06289864)
(2.568649769 -12.91347504 10.06289864)
(1.284324884 -13.0399704 10.06289864)
(-9.961071967e-09 -13.16646481 10.06289864)
(-1.284324884 -13.0399704 10.06289864)
(-2.568649769 -12.91347504 10.06289864)
(-3.803619146 -12.53885174 10.06289864)
(-5.038588047 -12.16422749 10.06289864)
(-6.176742554 -11.55587196 10.06289864)
(-7.314896107 -10.94751549 10.06289864)
(-8.312495232 -10.12880611 10.06289864)
(-9.310096741 -9.310096741 10.06289864)
(-10.12880611 -8.312495232 10.06289864)
(-10.94751549 -7.314896107 10.06289864)
(-11.55587196 -6.176742554 10.06289864)
(-12.16422749 -5.038588047 10.06289864)
(-12.53885174 -3.803619146 10.06289864)
(-12.91347504 -2.568649769 10.06289864)
(-13.0399704 -1.284324884 10.06289864)
(-13.16646481 -1.479930845e-08 10.06289864)
(-13.0399704 1.284324884 10.06289864)
(-12.91347504 2.568649769 10.06289864)
(-12.53885174 3.803619146 10.06289864)
(-12.16422749 5.038588047 10.06289864)
(-11.55587196 6.176742554 10.06289864)
(-10.94751549 7.314896107 10.06289864)
(-10.12880611 8.312495232 10.06289864)
(-9.310096741 9.310096741 10.06289864)
(-8.312495232 10.12880611 10.06289864)
(-7.314896107 10.94751549 10.06289864)
(-6.176742554 11.55587196 10.06289864)
(-5.038588047 12.16422749 10.06289864)
(-3.803619146 12.53885174 10.06289864)
(-2.568649769 12.91347504 10.06289864)
(-1.284324884 13.0399704 10.06289864)
(-8.333553314 -12.47204399 0.1999998093)
(-10.60660172 -10.60660172 0.1999998093)
(-12.47204399 -8.333553314 0.1999998093)
(-13.85819244 -5.740252018 0.1999998093)
(2.568649769 12.91347504 1.285255432)
(-9.961071967e-09 13.16646481 1.285255432)
(5.038588047 12.16422749 1.285255432)
(7.314896107 10.94751549 1.285255432)
(9.310096741 9.310096741 1.285255432)
(10.94751549 7.314896107 1.285255432)
(12.16422749 5.038588047 1.285255432)
(12.91347504 2.568649769 1.285255432)
(13.16646481 -1.479930845e-08 1.285255432)
(12.91347504 -2.568649769 1.285255432)
(12.16422749 -5.038588047 1.285255432)
(10.94751549 -7.314896107 1.285255432)
(9.310096741 -9.310096741 1.285255432)
(7.314896107 -10.94751549 1.285255432)
(5.038588047 -12.16422749 1.285255432)
(2.568649769 -12.91347504 1.285255432)
(-9.961071967e-09 -13.16646481 1.285255432)
(-2.568649769 -12.91347504 1.285255432)
(-5.038588047 -12.16422749 1.285255432)
(-7.314896107 -10.94751549 1.285255432)
(-9.310096741 -9.310096741 1.285255432)
(-10.94751549 -7.314896107 1.285255432)
(-12.16422749 -5.038588047 1.285255432)
(-12.91347504 -2.568649769 1.285255432)
(-13.16646481 -1.479930845e-08 1.285255432)
(-12.91347504 2.568649769 1.285255432)
(-12.16422749 5.038588047 1.285255432)
(-10.94751549 7.314896107 1.285255432)
(-9.310096741 9.310096741 1.285255432)
(-7.314896107 10.94751549 1.285255432)
(-5.038588047 12.16422749 1.285255432)
(-2.568649769 12.91347504 1.285255432)
(-14.28498554 4.333302021 0.1865568161)
(-13.85819244 5.740250587 0.1865568161)
(-2.926354885 14.71177769 0.1865568161)
(-1.463177443 14.85588837 0.1865568161)
(12.47204399 8.333552361 0.1865568161)
(13.16511917 7.036901474 0.1865568161)
(-13.16511917 7.036901474 0.1865568161)
(-12.47204399 8.333552361 0.1865568161)
(1.463177443 14.85588837 0.1865568161)
(2.926354885 14.71177769 0.1865568161)
(5.740252018 -13.8581934 0.1865568161)
(4.333303452 -14.2849865 0.1865568161)
(-11.53932285 9.470076561 0.1865568161)
(-10.60660172 10.60660076 0.1865568161)
(4.333303452 14.28498459 0.1865568161)
(5.740252018 13.85819149 0.1865568161)
(-14.71177864 -2.926356316 0.1865568161)
(-14.85588932 -1.463178754 0.1865568161)
(-9.470077515 11.5393219 0.1865568161)
(-8.333553314 12.47204304 0.1865568161)
(7.036902905 13.16511822 0.1865568161)
(8.333553314 12.47204304 0.1865568161)
(13.85819244 5.740250587 0.1865568161)
(14.28498554 4.333302021 0.1865568161)
(-7.036902905 13.16511822 0.1865568161)
(-5.740252018 13.85819149 0.1865568161)
(9.470077515 11.5393219 0.1865568161)
(10.60660172 10.60660076 0.1865568161)
(2.926354885 -14.71177959 0.1865568161)
(1.463177443 -14.85589027 0.1865568161)
(-4.333303452 14.28498459 0.1865568161)
(11.53932285 9.470076561 0.1865568161)
(-15 -1.313104462e-06 0.1865568161)
(-14.85588932 1.463176131 0.1865568161)
(0 14.99999905 0.1865568161)
(14.71177864 2.926353455 0.1865568161)
(14.85588932 1.463176131 0.1865568161)
(0 -15.00000191 0.1865568161)
(-1.463177443 -14.85589027 0.1865568161)
(15 -1.313104462e-06 0.1865568161)
(-14.71177864 2.926353455 0.1865568161)
(14.85588932 -1.463178754 0.1865568161)
(14.71177864 -2.926356316 0.1865568161)
(14.28498554 -4.333304882 0.1865568161)
(13.85819244 -5.740252972 0.1865568161)
(-2.926354885 -14.71177959 0.1865568161)
(13.16511917 -7.036904335 0.1865568161)
(12.47204399 -8.333554268 0.1865568161)
(11.53932285 -9.470078468 0.1865568161)
(10.60660172 -10.60660267 0.1865568161)
(9.470077515 -11.53932381 0.1865568161)
(8.333553314 -12.47204494 0.1865568161)
(-7.036902905 -13.16511917 0.1865568161)
(7.036902905 -13.16511917 0.1865568161)
(-8.333553314 -12.47204494 0.1865568161)
(-9.470077515 -11.53932381 0.1865568161)
(-10.60660172 -10.60660267 0.1865568161)
(-11.53932285 -9.470078468 0.1865568161)
(-12.47204399 -8.333554268 0.1865568161)
(-13.16511917 -7.036904335 0.1865568161)
(-13.85819244 -5.740252972 0.1865568161)
(-14.28498554 -4.333304882 0.1865568161)
(9.470077515 11.53932285 10.19999981)
(8.333553314 12.47204399 10.19999981)
(13.16511917 7.036902905 10.19999981)
(13.85819244 5.740252018 10.19999981)
(14.28498554 4.333303452 10.19999981)
(14.71177864 2.926354885 10.19999981)
(14.85588932 1.463177443 10.19999981)
(14.28498554 -4.333303452 10.19999981)
(13.85819244 -5.740252018 10.19999981)
(13.16511917 -7.036902905 10.19999981)
(12.47204399 -8.333553314 10.19999981)
(11.53932285 -9.470077515 10.19999981)
(10.60660172 -10.60660172 10.19999981)
(9.470077515 -11.53932285 10.19999981)
(8.333553314 -12.47204399 10.19999981)
(7.036902905 -13.16511917 10.19999981)
(1.463177443 -14.85588932 10.19999981)
(0 -15 10.19999981)
(-1.463177443 -14.85588932 10.19999981)
(-2.926354885 -14.71177864 10.19999981)
(-14.85588932 -1.463177443 10.19999981)
(-15 0 10.19999981)
(-14.85588932 1.463177443 10.19999981)
(-14.71177864 2.926354885 10.19999981)
(-14.28498554 4.333303452 10.19999981)
(-13.85819244 5.740252018 10.19999981)
(-13.16511917 7.036902905 10.19999981)
(-12.47204399 8.333553314 10.19999981)
(-11.53932285 9.470077515 10.19999981)
(-10.60660172 10.60660172 10.19999981)
(-9.470077515 11.53932285 10.19999981)
(-8.333553314 12.47204399 10.19999981)
(-7.036902905 13.16511917 10.19999981)
(-5.740252018 13.85819244 10.19999981)
(-4.333303452 14.28498554 10.19999981)
(-2.926354885 14.71177864 10.19999981)
(-1.463177443 14.85588932 10.19999981)
(0 15 10.19999981)
(1.463177443 14.85588932 10.19999981)
(2.926354885 14.71177864 10.19999981)
(4.333303452 14.28498554 10.19999981)
(5.740252018 13.85819244 10.19999981)
(7.036902905 13.16511917 10.19999981)
(2.568649769 -12.91347599 0.0494556427)
(1.284324884 -13.03997135 0.0494556427)
(6.176742554 11.55587101 0.0494556427)
(7.314896107 10.94751453 0.0494556427)
(3.803619146 12.53885078 0.0494556427)
(5.038588047 12.16422653 0.0494556427)
(1.284324884 13.03996944 0.0494556427)
(2.568649769 12.91347408 0.0494556427)
(5.038588047 -12.16422844 0.0494556427)
(3.803619146 -12.53885269 0.0494556427)
(-2.568649769 12.91347408 0.0494556427)
(-1.284324884 13.03996944 0.0494556427)
(7.314896107 -10.94751644 0.0494556427)
(6.176742554 -11.55587292 0.0494556427)
(-5.038588047 12.16422653 0.0494556427)
(-3.803619146 12.53885078 0.0494556427)
(9.310096741 -9.310097694 0.0494556427)
(8.312495232 -10.12880707 0.0494556427)
(-7.314896107 10.94751453 0.0494556427)
(-6.176742554 11.55587101 0.0494556427)
(10.94751549 -7.314897537 0.0494556427)
(10.12880611 -8.312496185 0.0494556427)
(-9.310096741 9.310095787 0.0494556427)
(-8.312495232 10.12880516 0.0494556427)
(12.16422749 -5.038589478 0.0494556427)
(11.55587196 -6.176743984 0.0494556427)
(-10.94751549 7.314895153 0.0494556427)
(-10.12880611 8.312494278 0.0494556427)
(12.91347504 -2.568651199 0.0494556427)
(12.53885174 -3.803620577 0.0494556427)
(-12.16422749 5.038586617 0.0494556427)
(-11.55587196 6.176741123 0.0494556427)
(13.16646481 -1.32790376e-06 0.0494556427)
(13.0399704 -1.284326315 0.0494556427)
(-12.91347504 2.568648577 0.0494556427)
(-12.53885174 3.803617716 0.0494556427)
(-9.961071967e-09 13.16646385 0.0494556427)
(12.91347504 2.568648577 0.0494556427)
(13.0399704 1.284323573 0.0494556427)
(-13.16646481 -1.32790376e-06 0.0494556427)
(-13.0399704 1.284323573 0.0494556427)
(11.55587196 6.176741123 0.0494556427)
(10.94751549 7.314895153 0.0494556427)
(-13.0399704 -1.284326315 0.0494556427)
(-12.91347504 -2.568651199 0.0494556427)
(12.53885174 3.803617716 0.0494556427)
(12.16422749 5.038586617 0.0494556427)
(9.310096741 9.310095787 0.0494556427)
(8.312495232 10.12880516 0.0494556427)
(10.12880611 8.312494278 0.0494556427)
(-1.284324884 -13.03997135 0.0494556427)
(-9.961071967e-09 -13.16646576 0.0494556427)
(-3.803619146 -12.53885269 0.0494556427)
(-2.568649769 -12.91347599 0.0494556427)
(-6.176742554 -11.55587292 0.0494556427)
(-5.038588047 -12.16422844 0.0494556427)
(-8.312495232 -10.12880707 0.0494556427)
(-7.314896107 -10.94751644 0.0494556427)
(-10.12880611 -8.312496185 0.0494556427)
(-9.310096741 -9.310097694 0.0494556427)
(-10.94751549 -7.314897537 0.0494556427)
(-12.16422749 -5.038589478 0.0494556427)
(-11.55587196 -6.176743984 0.0494556427)
(-12.53885174 -3.803620577 0.0494556427)
(11.53932285 9.470077515 10.19999981)
(14.85588932 -1.463177443 10.19999981)
(4.333303452 -14.28498554 10.19999981)
(-8.333553314 -12.47204399 10.19999981)
(-7.036902905 -13.16511917 10.19999981)
(-10.60660172 -10.60660172 10.19999981)
(-9.470077515 -11.53932285 10.19999981)
(-12.47204399 -8.333553314 10.19999981)
(-11.53932285 -9.470077515 10.19999981)
(-13.85819244 -5.740252018 10.19999981)
(-13.16511917 -7.036902905 10.19999981)
(-14.28498554 -4.333303452 10.19999981)
)

// edges

306
(
(224 225)
(226 227)
(228 229)
(230 231)
(232 233)
(234 235)
(236 237)
(238 239)
(240 241)
(242 243)
(16 12)
(17 18)
(244 245)
(246 247)
(248 249)
(250 251)
(252 253)
(254 255)
(256 257)
(258 259)
(235 260)
(239 234)
(261 262)
(263 264)
(243 238)
(254 259)
(265 266)
(250 255)
(246 251)
(267 268)
(242 247)
(269 270)
(271 272)
(266 273)
(270 265)
(261 269)
(274 275)
(256 262)
(252 257)
(248 253)
(276 277)
(230 260)
(244 249)
(240 245)
(236 241)
(278 279)
(232 237)
(228 231)
(224 233)
(275 225)
(280 281)
(277 274)
(226 229)
(279 276)
(281 278)
(282 283)
(283 280)
(272 227)
(284 282)
(285 286)
(286 284)
(268 287)
(273 271)
(263 267)
(258 264)
(287 285)
(3 288)
(288 0)
(7 289)
(289 4)
(11 290)
(290 8)
(291 292)
(292 12)
(293 294)
(294 291)
(295 296)
(296 293)
(297 298)
(298 295)
(15 299)
(299 297)
(0 1)
(1 2)
(2 3)
(4 5)
(5 6)
(6 7)
(8 9)
(9 10)
(10 11)
(12 13)
(13 83)
(83 84)
(84 85)
(85 86)
(86 14)
(14 15)
(87 88)
(89 87)
(90 89)
(91 90)
(92 91)
(93 92)
(94 93)
(95 94)
(96 95)
(97 96)
(98 97)
(99 98)
(100 99)
(101 100)
(102 101)
(103 102)
(104 103)
(105 104)
(106 105)
(107 106)
(108 107)
(109 108)
(110 109)
(111 110)
(112 111)
(113 112)
(114 113)
(115 114)
(116 115)
(117 116)
(118 117)
(88 118)
(12 17)
(18 16)
(119 120)
(121 122)
(123 124)
(125 126)
(127 128)
(129 130)
(131 132)
(133 134)
(135 136)
(137 138)
(139 140)
(141 142)
(143 144)
(145 146)
(147 148)
(149 121)
(150 123)
(151 152)
(122 153)
(124 141)
(154 155)
(142 154)
(156 157)
(155 158)
(159 119)
(160 161)
(158 160)
(162 163)
(164 18)
(153 127)
(165 166)
(120 125)
(167 168)
(161 162)
(169 170)
(17 171)
(172 129)
(126 131)
(128 133)
(130 147)
(163 165)
(148 156)
(173 174)
(157 164)
(132 137)
(134 139)
(166 167)
(171 173)
(175 176)
(174 175)
(138 143)
(140 145)
(176 177)
(168 169)
(178 179)
(177 178)
(180 135)
(144 149)
(146 150)
(136 151)
(170 172)
(152 159)
(179 180)
(181 182)
(0 181)
(183 3)
(184 183)
(185 184)
(186 185)
(187 186)
(4 187)
(188 7)
(189 188)
(190 189)
(191 190)
(192 191)
(193 192)
(194 193)
(195 194)
(196 195)
(8 196)
(197 11)
(198 197)
(199 198)
(200 199)
(16 200)
(201 15)
(202 201)
(203 202)
(204 203)
(205 204)
(206 205)
(207 206)
(208 207)
(209 208)
(210 209)
(211 210)
(212 211)
(213 212)
(214 213)
(215 214)
(216 215)
(217 216)
(218 217)
(219 218)
(220 219)
(221 220)
(222 221)
(223 222)
(182 223)
(19 20)
(21 19)
(22 23)
(20 22)
(24 25)
(23 24)
(26 27)
(25 26)
(28 29)
(27 28)
(30 31)
(29 30)
(32 33)
(31 32)
(34 35)
(33 34)
(36 37)
(35 36)
(38 39)
(37 38)
(40 41)
(39 40)
(42 43)
(41 42)
(44 45)
(43 44)
(46 47)
(45 46)
(48 49)
(47 48)
(50 51)
(49 50)
(52 53)
(51 52)
(54 55)
(53 54)
(56 57)
(55 56)
(58 59)
(57 58)
(60 61)
(59 60)
(62 63)
(61 62)
(64 65)
(63 64)
(66 67)
(65 66)
(68 69)
(67 68)
(70 71)
(69 70)
(72 73)
(71 72)
(74 75)
(73 74)
(76 77)
(75 76)
(78 79)
(77 78)
(80 81)
(79 80)
(82 21)
(81 82)
)

// concaveStart mixedStart nonFeatureStart
0 0 19
// internalStart flatStart openStart multipleStart
66 82 82 242
// normals

506
(
(0.09801744814 0.9951846964 0)
(-0.007343944162 -0.07456407996 0.9971891819)
(-0.09801744814 -0.9951846964 9.478079474e-08)
(0.09801671551 0.9951847685 -1.082361727e-07)
(-0.09801671551 -0.9951847685 9.478080161e-08)
(-0.007343885643 -0.07456404855 0.9971891847)
(0.2902850547 0.9569402212 0)
(-0.0217495722 -0.07169862898 0.997189181)
(-0.2902850547 -0.9569402212 9.113841383e-08)
(0.2902842754 0.9569404576 -1.197391875e-07)
(-0.2902842754 -0.9569404576 9.113843634e-08)
(-0.02174950743 -0.07169862567 0.9971891827)
(0.4713971752 0.88192103 0)
(-0.03531935626 -0.06607778896 0.9971891841)
(-0.4713971752 -0.88192103 8.399363096e-08)
(0.4713962932 0.8819215015 -1.470354163e-07)
(-0.4713962932 -0.8819215015 8.399367586e-08)
(-0.03531929403 -0.06607783149 0.9971891835)
(0.6343928088 0.7730108435 0)
(-0.04753176462 -0.0579176954 0.9971891856)
(-0.6343928088 -0.7730108435 7.362109e-08)
(0.6343937147 0.7730101 1.723141902e-07)
(-0.0475318325 -0.0579176397 0.9971891856)
(-0.6343937147 -0.7730101 7.362101918e-08)
(0.7730101 0.6343937147 0)
(-0.0579176397 -0.0475318325 0.9971891856)
(-0.7730101 -0.6343937147 6.041927763e-08)
(0.7730108435 0.6343928088 1.723139441e-07)
(-0.05791771983 -0.04753178467 0.9971891832)
(-0.7730108435 -0.6343928088 6.041919135e-08)
(0.8819215015 0.4713962932 0)
(-0.06607782428 -0.03531929018 0.9971891841)
(-0.8819215015 -0.4713962932 6.734325116e-08)
(0.88192103 0.4713971752 -1.470354609e-07)
(-0.88192103 -0.4713971752 4.489558477e-08)
(-0.06607779747 -0.03531936081 0.9971891834)
(0.9569404576 0.2902842754 0)
(-0.07169864669 -0.02174951381 0.997189181)
(-0.9569404576 -0.2902842754 4.146975092e-08)
(0.9569402212 0.2902850547 -1.197392042e-07)
(-0.9569402212 -0.2902850547 4.146986226e-08)
(-0.07169860321 -0.02174956438 0.997189183)
(0.9951847685 0.09801671515 0)
(-0.07456408537 -0.007343889243 0.9971891819)
(-0.9951847685 -0.09801671515 1.283569825e-08)
(0.9951846964 0.09801744814 -1.082901929e-07)
(-0.9951846964 -0.09801744814 1.166890386e-08)
(-0.07456407281 -0.007343943457 0.9971891824)
(0.9951846964 -0.09801744814 0)
(-0.9951846964 0.09801744814 -1.400268463e-08)
(-0.07456407996 0.007343944162 0.9971891819)
(0.9951847683 -0.09801671739 -1.079596826e-07)
(-0.9951847683 0.09801671739 -1.285334006e-08)
(-0.07456404865 0.007343885795 0.9971891847)
(0.9569402212 -0.2902850547 0)
(-0.9569402212 0.2902850547 -4.146986226e-08)
(-0.07169862898 0.0217495722 0.997189181)
(0.9569404576 -0.2902842754 -1.197391875e-07)
(-0.9569404576 0.2902842754 -4.146975092e-08)
(-0.07169862567 0.02174950743 0.9971891827)
(0.88192103 -0.4713971752 0)
(-0.88192103 0.4713971752 -6.734337716e-08)
(-0.06607778896 0.03531935626 0.9971891841)
(0.8819215015 -0.4713962932 -1.470354163e-07)
(-0.8819215015 0.4713962932 -6.734325116e-08)
(-0.06607783149 0.03531929403 0.9971891835)
(0.7730108435 -0.6343928088 0)
(-0.7730108435 0.6343928088 -6.041919135e-08)
(-0.0579176954 0.04753176462 0.9971891856)
(0.7730101 -0.6343937147 1.723141902e-07)
(-0.05791766966 0.04753185709 0.9971891827)
(-0.7730101 0.6343937147 -9.062891644e-08)
(0.6343937147 -0.7730101 0)
(-0.6343937147 0.7730101 -7.362101918e-08)
(-0.0475318325 0.0579176397 0.9971891856)
(0.6343928088 -0.7730108435 1.723139441e-07)
(-0.04753178467 0.05791771983 0.9971891832)
(-0.6343928088 0.7730108435 -7.362109e-08)
(0.4713962932 -0.8819215015 0)
(-0.4713962932 0.8819215015 -8.399367586e-08)
(-0.03531929018 0.06607782428 0.9971891841)
(0.4713971752 -0.88192103 -1.470354609e-07)
(-0.4713971752 0.88192103 -8.399363096e-08)
(-0.03531936081 0.06607779747 0.9971891834)
(0.2902842754 -0.9569404576 0)
(-0.2902842754 0.9569404576 -9.113843634e-08)
(-0.02174951381 0.07169864669 0.997189181)
(0.2902850547 -0.9569402212 -1.197392042e-07)
(-0.2902850547 0.9569402212 -9.113841383e-08)
(-0.02174956438 0.07169860321 0.997189183)
(0.09801671551 -0.9951847685 0)
(-0.09801671551 0.9951847685 -9.478080161e-08)
(-0.00734388927 0.07456408537 0.9971891819)
(0.09801744814 -0.9951846964 -1.082361657e-07)
(-0.09801744814 0.9951846964 -9.478079474e-08)
(-0.007343943457 0.07456407281 0.9971891824)
(-0.09801744814 -0.9951846964 0)
(0.09801744814 0.9951846964 -9.478079474e-08)
(0.007343944162 0.07456407996 0.9971891819)
(-0.09801671702 -0.9951847684 -1.080137094e-07)
(0.09801671702 0.9951847684 -9.47808016e-08)
(0.007343885765 0.07456404863 0.9971891847)
(-0.2902850547 -0.9569402212 0)
(0.2902850547 0.9569402212 -9.113841383e-08)
(0.0217495722 0.07169862898 0.997189181)
(-0.2902842754 -0.9569404576 -1.197391875e-07)
(0.2902842754 0.9569404576 -9.113843634e-08)
(0.02174950743 0.07169862567 0.9971891827)
(-0.4713971752 -0.88192103 0)
(0.4713971752 0.88192103 -8.399363096e-08)
(0.03531935626 0.06607778896 0.9971891841)
(-0.4713962932 -0.8819215015 -1.470354163e-07)
(0.4713962932 0.8819215015 -8.399367586e-08)
(0.03531929403 0.06607783149 0.9971891835)
(-0.6343928088 -0.7730108435 0)
(0.6343928088 0.7730108435 -7.362109e-08)
(0.04753176462 0.0579176954 0.9971891856)
(-0.6343937147 -0.7730101 1.723141902e-07)
(0.04753185709 0.05791766966 0.9971891827)
(0.6343937147 0.7730101 -7.362101918e-08)
(-0.7730101 -0.6343937147 0)
(0.7730101 0.6343937147 -6.041927763e-08)
(0.0579176397 0.0475318325 0.9971891856)
(-0.7730108435 -0.6343928088 1.723139441e-07)
(0.05791771983 0.04753178467 0.9971891832)
(0.7730108435 0.6343928088 -6.041919135e-08)
(-0.8819215015 -0.4713962932 0)
(0.8819215015 0.4713962932 -6.734325116e-08)
(0.06607782428 0.03531929018 0.9971891841)
(-0.88192103 -0.4713971752 -1.470354609e-07)
(0.88192103 0.4713971752 -6.734337716e-08)
(0.06607779747 0.03531936081 0.9971891834)
(-0.9569404576 -0.2902842754 0)
(0.9569404576 0.2902842754 -4.146975092e-08)
(0.07169864669 0.02174951381 0.997189181)
(-0.9569402212 -0.2902850547 -1.197392042e-07)
(0.9569402212 0.2902850547 -4.146986226e-08)
(0.07169860321 0.02174956438 0.997189183)
(-0.9951847683 -0.09801671739 0)
(0.9951847683 0.09801671739 -1.400258023e-08)
(0.07456408536 0.00734388941 0.9971891819)
(-0.9951846964 -0.09801744814 -1.079596735e-07)
(0.9951846964 0.09801744814 -1.400268463e-08)
(0.07456407281 0.007343943457 0.9971891824)
(-0.9951846964 0.09801744814 0)
(0.07456407996 -0.007343944162 0.9971891819)
(0.9951846964 -0.09801744814 1.283579424e-08)
(-0.9951847685 0.09801671515 -1.082901995e-07)
(0.9951847685 -0.09801671515 1.285333977e-08)
(0.07456404853 -0.007343885614 0.9971891847)
(-0.9569402212 0.2902850547 0)
(0.07169862898 -0.0217495722 0.997189181)
(0.9569402212 -0.2902850547 4.146986226e-08)
(-0.9569404576 0.2902842754 -1.197391875e-07)
(0.9569404576 -0.2902842754 3.455812577e-08)
(0.07169862567 -0.02174950743 0.9971891827)
(-0.88192103 0.4713971752 0)
(0.06607778896 -0.03531935626 0.9971891841)
(0.88192103 -0.4713971752 6.734337716e-08)
(-0.8819215015 0.4713962932 -1.470354163e-07)
(0.8819215015 -0.4713962932 6.734325116e-08)
(0.06607783149 -0.03531929403 0.9971891835)
(-0.7730108435 0.6343928088 0)
(0.0579176954 -0.04753176462 0.9971891856)
(0.7730108435 -0.6343928088 6.041919135e-08)
(-0.7730101 0.6343937147 1.723141902e-07)
(0.05791766966 -0.04753185709 0.9971891827)
(0.7730101 -0.6343937147 6.041927763e-08)
(-0.6343937147 0.7730101 0)
(0.0475318325 -0.0579176397 0.9971891856)
(0.6343937147 -0.7730101 7.362101918e-08)
(-0.6343928088 0.7730108435 1.723139441e-07)
(0.04753178467 -0.05791771983 0.9971891832)
(0.6343928088 -0.7730108435 7.362109e-08)
(-0.4713962932 0.8819215015 0)
(0.03531929018 -0.06607782428 0.9971891841)
(0.4713962932 -0.8819215015 8.399367586e-08)
(-0.4713971752 0.88192103 -1.470354609e-07)
(0.4713971752 -0.88192103 8.399363096e-08)
(0.03531936081 -0.06607779747 0.9971891834)
(-0.2902842754 0.9569404576 0)
(0.02174951381 -0.07169864669 0.997189181)
(0.2902842754 -0.9569404576 9.113843634e-08)
(-0.2902850547 0.9569402212 -1.197392042e-07)
(0.2902850547 -0.9569402212 9.113841383e-08)
(0.02174956438 -0.07169860321 0.997189183)
(-0.09801671702 0.9951847684 0)
(0.007343889383 -0.07456408536 0.9971891819)
(0.09801671702 -0.9951847684 9.47808016e-08)
(-0.09801744814 0.9951846964 -1.080137007e-07)
(0.09801744814 -0.9951846964 9.478079474e-08)
(0.007343943457 -0.07456407281 0.9971891824)
(-0.7730105096 -0.6343932157 -0)
(-0.7730105096 -0.6343932157 0)
(-0.9951847081 0.09801732891 0)
(-0.9951847081 0.09801732891 0)
(-0.2902846254 0.9569403514 0)
(-0.2902846254 0.9569403514 0)
(0.471396745 0.88192126 0)
(0.6343932157 0.7730105096 0)
(0.7730105096 0.6343932157 0)
(0.88192126 0.471396745 0)
(0.9569403514 0.2902846254 0)
(0.9569403514 0.2902846254 -0)
(0.09801708183 0.9951847324 0)
(0.290284665 0.9569403394 0)
(0.4713967342 0.8819212658 0)
(0.6343932617 0.7730104718 0)
(0.7730104718 0.6343932617 0)
(0.8819212658 0.4713967342 0)
(0.9569403394 0.290284665 0)
(0.9951847325 0.09801708164 0)
(0.9951847323 -0.09801708276 0)
(0.9569403394 -0.290284665 0)
(0.8819212658 -0.4713967342 0)
(0.7730104718 -0.6343932617 0)
(0.6343932617 -0.7730104718 0)
(0.4713967342 -0.8819212658 0)
(0.290284665 -0.9569403394 0)
(0.09801708183 -0.9951847324 0)
(-0.09801708258 -0.9951847324 0)
(-0.290284665 -0.9569403394 0)
(-0.4713967342 -0.8819212658 0)
(-0.6343932617 -0.7730104718 0)
(-0.7730104718 -0.6343932617 0)
(-0.8819212658 -0.4713967342 0)
(-0.9569403394 -0.290284665 0)
(-0.9951847323 -0.09801708276 0)
(-0.9951847325 0.09801708164 0)
(-0.9569403394 0.290284665 0)
(-0.8819212658 0.4713967342 0)
(-0.7730104718 0.6343932617 0)
(-0.6343932617 0.7730104718 0)
(-0.4713967342 0.8819212658 0)
(-0.290284665 0.9569403394 0)
(-0.09801708258 0.9951847324 0)
(-0.2902846254 -0.9569403514 9.113842623e-08)
(-0.2902846254 -0.9569403514 9.113842623e-08)
(-0.07169861611 0.02174953318 -0.9971891828)
(-0.007343935229 0.07456408084 -0.9971891819)
(0.06607778868 0.03531935678 -0.9971891841)
(-0.06607779714 0.03531936131 -0.9971891834)
(0.00734393461 0.07456407456 -0.9971891824)
(0.02174954004 -0.07169863873 -0.997189181)
(-0.05791769182 0.0475318127 -0.9971891835)
(0.02174953318 0.07169861611 -0.9971891828)
(-0.07456408138 -0.007343934683 -0.9971891818)
(-0.04753181669 0.05791769668 -0.9971891831)
(0.03531937088 0.06607779075 -0.9971891835)
(0.07169863873 0.02174954004 -0.997189181)
(-0.03531928457 0.06607783542 -0.9971891836)
(0.0475318127 0.05791769182 -0.9971891835)
(0.007343935229 -0.07456408084 -0.9971891819)
(-0.02174953444 0.07169862029 -0.9971891825)
(0.05791769668 0.04753181669 -0.9971891831)
(-0.07456408084 0.00734393522 -0.9971891819)
(-0.007343932053 0.0745640486 -0.9971891843)
(0.06607783542 0.03531928457 -0.9971891836)
(0.07456408078 0.007343935821 -0.9971891819)
(0.07169862299 0.02174953526 -0.9971891822)
(-0.007343983361 -0.0745640761 -0.9971891819)
(0.0745640485 0.007343932034 -0.9971891843)
(-0.07169863873 0.02174954004 -0.997189181)
(0.07456407468 -0.007343934023 -0.9971891824)
(0.07456408132 -0.007343935284 -0.9971891818)
(0.07169861881 -0.02174954137 -0.9971891824)
(-0.02174954004 -0.07169863873 -0.997189181)
(0.007343935229 0.07456408084 -0.9971891819)
(0.06607779246 -0.03531938478 -0.9971891829)
(-0.06607782909 0.03531928118 -0.9971891841)
(0.05791769182 -0.0475318127 -0.9971891835)
(0.07169863873 -0.02174954004 -0.997189181)
(0.04753181669 -0.05791769668 -0.9971891831)
(-0.03531933517 -0.06607783917 -0.9971891815)
(0.03531932435 -0.06607781891 -0.9971891832)
(-0.05791767038 0.04753179511 -0.9971891856)
(0.02174954004 0.07169863873 -0.997189181)
(0.02174953444 -0.07169862029 -0.9971891825)
(0.06607783449 -0.03531927108 -0.9971891841)
(0.007343976844 -0.07456400993 -0.9971891869)
(-0.04753179511 -0.05791767038 -0.9971891856)
(-0.00734393461 -0.07456407456 -0.9971891824)
(-0.04753179511 0.05791767038 -0.9971891856)
(0.03531928118 0.06607782909 -0.9971891841)
(0.05791767038 -0.04753179511 -0.9971891856)
(-0.03531933506 -0.06607781466 -0.9971891831)
(-0.05791767038 -0.04753179511 -0.9971891856)
(-0.0475318127 -0.05791769182 -0.9971891835)
(-0.03531936689 0.06607778328 -0.9971891841)
(0.04753179511 0.05791767038 -0.9971891856)
(-0.05791770623 -0.04753182453 -0.9971891821)
(0.04753179511 -0.05791767038 -0.9971891856)
(-0.06607784792 -0.03531927826 -0.997189183)
(-0.06607777788 -0.03531937699 -0.9971891841)
(-0.07169862029 -0.02174953444 -0.9971891825)
(-0.02174954004 0.07169863873 -0.997189181)
(0.05791767038 0.04753179511 -0.9971891856)
(-0.07456404862 -0.007343932064 -0.9971891843)
(0.03531934528 -0.06607783377 -0.9971891815)
(-0.07456407539 0.00734393529 -0.9971891823)
(-0.07169863668 -0.02174954679 -0.997189181)
(-0.04753181669 -0.05791769668 0.9971891831)
(-0.0475318127 -0.05791769182 0.9971891835)
(-0.06607778328 -0.03531936689 0.9971891841)
(-0.06607783542 -0.03531928457 0.9971891836)
(-0.07169863873 -0.02174954004 0.997189181)
(-0.07169862029 -0.02174953444 0.9971891825)
(-0.07456408084 -0.007343935229 0.9971891819)
(-0.0745640485 -0.007343932043 0.9971891843)
(-0.07169863873 0.02174954004 0.997189181)
(-0.07169861611 0.02174953318 0.9971891828)
(-0.06607782909 0.03531928118 0.9971891841)
(-0.06607779075 0.03531937088 0.9971891835)
(-0.05791767038 0.04753179511 0.9971891856)
(-0.05791769182 0.0475318127 0.9971891835)
(-0.04753179511 0.05791767038 0.9971891856)
(-0.04753181669 0.05791769668 0.9971891831)
(-0.03531936689 0.06607778328 0.9971891841)
(-0.03531928457 0.06607783542 0.9971891836)
(-0.007343935229 0.07456408084 0.9971891819)
(-0.007343932045 0.07456404852 0.9971891843)
(0.007343935229 0.07456408084 0.9971891819)
(0.00734393461 0.07456407456 0.9971891824)
(0.02174954004 0.07169863873 0.997189181)
(0.07456408084 0.007343935229 0.9971891819)
(0.07456404862 0.007343932055 0.9971891843)
(0.07456408084 -0.007343935229 0.9971891819)
(0.07456407456 -0.00734393461 0.9971891824)
(0.07169863873 -0.02174954004 0.997189181)
(0.07169861611 -0.02174953318 0.9971891828)
(0.06607782909 -0.03531928118 0.9971891841)
(0.06607779075 -0.03531937088 0.9971891835)
(0.05791767038 -0.04753179511 0.9971891856)
(0.05791769182 -0.0475318127 0.9971891835)
(0.04753179511 -0.05791767038 0.9971891856)
(0.04753181669 -0.05791769668 0.9971891831)
(0.03531936689 -0.06607778328 0.9971891841)
(0.03531928457 -0.06607783542 0.9971891836)
(0.02174954004 -0.07169863873 0.997189181)
(0.02174953444 -0.07169862029 0.9971891825)
(0.007343935229 -0.07456408084 0.9971891819)
(0.007343932053 -0.0745640486 0.9971891843)
(-0.007343935229 -0.07456408084 0.9971891819)
(-0.00734393461 -0.07456407456 0.9971891824)
(-0.02174954004 -0.07169863873 0.997189181)
(-0.02174953318 -0.07169861611 0.9971891828)