/*--------------------------------*- C++ -*----------------------------------*\
| =========                 |                                                 |
| \\      /  F ield         | OpenFOAM: The Open Source CFD Toolbox           |
|  \\    /   O peration     | Version:  v1706                                 |
|   \\  /    A nd           | Web:      www.OpenFOAM.com                      |
|    \\/     M anipulation  |                                                 |
\*---------------------------------------------------------------------------*/
FoamFile
{
    version     2.0;
    format      ascii;
    class       extendedFeatureEdgeMesh;
    location    "constant/extendedFeatureEdgeMesh";
    object      ShieldFaceOut.extendedFeatureEdgeMesh;
}
// * * * * * * * * * * * * * * * * * * * * * * * * * * * * * * * * * * * * * //

// points

156
(
(10.60660172 10.60660172 0.1999998093)
(10.60660172 10.60660172 10.19999981)
(12.47204399 8.333553314 10.19999981)
(12.47204399 8.333553314 0.1999998093)
(15 0 0.1999998093)
(15 0 10.19999981)
(14.71177864 -2.926354885 10.19999981)
(14.71177864 -2.926354885 0.1999998093)
(5.740252018 -13.85819244 0.1999998093)
(5.740252018 -13.85819244 10.19999981)
(2.926354885 -14.71177864 10.19999981)
(2.926354885 -14.71177864 0.1999998093)
(-5.740252018 -13.85819244 0.1999998093)
(-5.740252018 -13.85819244 10.19999981)
(-4.333303452 -14.28498554 10.19999981)
(-14.71177864 -2.926354885 10.19999981)
(-14.71177864 -2.926354885 0.1999998093)
(-5.740252018 -13.8581934 0.1865568161)
(-4.333303452 -14.2849865 0.1865568161)
(0 15 0.1999998093)
(2.926354885 14.71177864 0.1999998093)
(5.740252018 13.85819244 0.1999998093)
(8.333553314 12.47204399 0.1999998093)
(13.85819244 5.740252018 0.1999998093)
(14.71177864 2.926354885 0.1999998093)
(13.85819244 -5.740252018 0.1999998093)
(12.47204399 -8.333553314 0.1999998093)
(10.60660172 -10.60660172 0.1999998093)
(8.333553314 -12.47204399 0.1999998093)
(0 -15 0.1999998093)
(-2.926354885 -14.71177864 0.1999998093)
(-15 0 0.1999998093)
(-14.71177864 2.926354885 0.1999998093)
(-13.85819244 5.740252018 0.1999998093)
(-12.47204399 8.333553314 0.1999998093)
(-10.60660172 10.60660172 0.1999998093)
(-8.333553314 12.47204399 0.1999998093)
(-5.740252018 13.85819244 0.1999998093)
(-2.926354885 14.71177864 0.1999998093)
(-8.333553314 12.47204304 0.1865568161)
(-9.470077515 11.5393219 0.1865568161)
(-10.60660172 10.60660076 0.1865568161)
(-11.53932285 9.470076561 0.1865568161)
(14.28498554 4.333302021 0.1865568161)
(13.85819244 5.740250587 0.1865568161)
(-14.85588932 -1.463178754 0.1865568161)
(-14.71177864 -2.926356316 0.1865568161)
(-12.47204399 8.333552361 0.1865568161)
(-13.16511917 7.036901474 0.1865568161)
(-13.85819244 5.740250587 0.1865568161)
(-14.28498554 4.333302021 0.1865568161)
(-14.71177864 2.926353455 0.1865568161)
(-14.85588932 1.463176131 0.1865568161)
(13.16511917 7.036901474 0.1865568161)
(12.47204399 8.333552361 0.1865568161)
(-13.85819244 -5.740252018 10.19999981)
(-14.28498554 -4.333303452 10.19999981)
(-14.28498554 -4.333304882 0.1865568161)
(-13.85819244 -5.740252972 0.1865568161)
(-15 -1.313104462e-06 0.1865568161)
(-13.16511917 -7.036902905 10.19999981)
(-13.16511917 -7.036904335 0.1865568161)
(11.53932285 9.470077515 10.19999981)
(11.53932285 9.470076561 0.1865568161)
(10.60660172 10.60660076 0.1865568161)
(-12.47204399 -8.333553314 10.19999981)
(-12.47204399 -8.333554268 0.1865568161)
(-11.53932285 -9.470077515 10.19999981)
(-11.53932285 -9.470078468 0.1865568161)
(-9.470077515 -11.53932285 10.19999981)
(-10.60660172 -10.60660172 10.19999981)
(-10.60660172 -10.60660267 0.1865568161)
(-9.470077515 -11.53932381 0.1865568161)
(-7.036902905 -13.16511917 10.19999981)
(-8.333553314 -12.47204399 10.19999981)
(-8.333553314 -12.47204494 0.1865568161)
(-7.036902905 -13.16511917 0.1865568161)
(9.470077515 11.5393219 0.1865568161)
(8.333553314 12.47204304 0.1865568161)
(-2.926354885 -14.71177959 0.1865568161)
(-1.463177443 -14.85589027 0.1865568161)
(0 -15.00000191 0.1865568161)
(1.463177443 -14.85589027 0.1865568161)
(7.036902905 13.16511822 0.1865568161)
(5.740252018 13.85819149 0.1865568161)
(4.333303452 -14.28498554 10.19999981)
(2.926354885 -14.71177959 0.1865568161)
(4.333303452 -14.2849865 0.1865568161)
(5.740252018 -13.8581934 0.1865568161)
(7.036902905 -13.16511917 0.1865568161)
(8.333553314 -12.47204494 0.1865568161)
(9.470077515 -11.53932381 0.1865568161)
(4.333303452 14.28498459 0.1865568161)
(2.926354885 14.71177769 0.1865568161)
(10.60660172 -10.60660267 0.1865568161)
(11.53932285 -9.470078468 0.1865568161)
(12.47204399 -8.333554268 0.1865568161)
(13.16511917 -7.036904335 0.1865568161)
(13.85819244 -5.740252972 0.1865568161)
(14.28498554 -4.333304882 0.1865568161)
(14.85588932 -1.463177443 10.19999981)
(14.71177864 -2.926356316 0.1865568161)
(14.85588932 -1.463178754 0.1865568161)
(1.463177443 14.85588837 0.1865568161)
(0 14.99999905 0.1865568161)
(15 -1.313104462e-06 0.1865568161)
(14.85588932 1.463176131 0.1865568161)
(14.71177864 2.926353455 0.1865568161)
(-5.740252018 13.85819149 0.1865568161)
(-7.036902905 13.16511822 0.1865568161)
(-2.926354885 14.71177769 0.1865568161)
(-4.333303452 14.28498459 0.1865568161)
(-1.463177443 14.85588837 0.1865568161)
(7.036902905 13.16511917 10.19999981)
(5.740252018 13.85819244 10.19999981)
(13.16511917 7.036902905 10.19999981)
(13.85819244 -5.740252018 10.19999981)
(14.28498554 -4.333303452 10.19999981)
(12.47204399 -8.333553314 10.19999981)
(13.16511917 -7.036902905 10.19999981)
(10.60660172 -10.60660172 10.19999981)
(11.53932285 -9.470077515 10.19999981)
(8.333553314 -12.47204399 10.19999981)
(9.470077515 -11.53932285 10.19999981)
(7.036902905 -13.16511917 10.19999981)
(0 -15 10.19999981)
(1.463177443 -14.85588932 10.19999981)
(-2.926354885 -14.71177864 10.19999981)
(-1.463177443 -14.85588932 10.19999981)
(-15 0 10.19999981)
(-14.85588932 -1.463177443 10.19999981)
(-13.16511917 7.036902905 10.19999981)
(-13.85819244 5.740252018 10.19999981)
(-7.036902905 13.16511917 10.19999981)
(-8.333553314 12.47204399 10.19999981)
(2.926354885 14.71177864 10.19999981)
(1.463177443 14.85588932 10.19999981)
(0 15 10.19999981)
(4.333303452 14.28498554 10.19999981)
(8.333553314 12.47204399 10.19999981)
(9.470077515 11.53932285 10.19999981)
(13.85819244 5.740252018 10.19999981)
(14.71177864 2.926354885 10.19999981)
(14.28498554 4.333303452 10.19999981)
(14.85588932 1.463177443 10.19999981)
(-14.71177864 2.926354885 10.19999981)
(-14.85588932 1.463177443 10.19999981)
(-14.28498554 4.333303452 10.19999981)
(-12.47204399 8.333553314 10.19999981)
(-10.60660172 10.60660172 10.19999981)
(-11.53932285 9.470077515 10.19999981)
(-9.470077515 11.53932285 10.19999981)
(-5.740252018 13.85819244 10.19999981)
(-2.926354885 14.71177864 10.19999981)
(-4.333303452 14.28498554 10.19999981)
(-1.463177443 14.85588932 10.19999981)
)

// edges

161
(
(113 114)
(115 2)
(116 117)
(117 6)
(118 119)
(119 116)
(120 121)
(121 118)
(122 123)
(123 120)
(9 124)
(124 122)
(125 126)
(126 10)
(127 128)
(128 125)
(14 127)
(129 130)
(130 15)
(131 132)
(133 134)
(135 136)
(136 137)
(114 138)
(138 135)
(139 113)
(1 140)
(140 139)
(141 115)
(142 143)
(143 141)
(5 144)
(144 142)
(145 146)
(146 129)
(132 147)
(147 145)
(148 131)
(149 150)
(150 148)
(134 151)
(151 149)
(152 133)
(153 154)
(154 152)
(137 155)
(155 153)
(19 20)
(20 21)
(21 22)
(22 0)
(0 1)
(2 3)
(3 23)
(23 24)
(24 4)
(4 5)
(6 7)
(7 25)
(25 26)
(26 27)
(27 28)
(28 8)
(8 9)
(10 11)
(11 29)
(29 30)
(30 12)
(12 13)
(13 14)
(15 16)
(16 31)
(31 32)
(32 33)
(33 34)
(34 35)
(35 36)
(36 37)
(37 38)
(38 19)
(39 40)
(41 42)
(43 44)
(45 46)
(47 48)
(49 50)
(51 52)
(53 54)
(55 56)
(57 58)
(59 45)
(56 15)
(46 57)
(60 55)
(58 61)
(1 62)
(63 64)
(65 60)
(61 66)
(67 65)
(66 68)
(69 70)
(71 72)
(73 74)
(75 76)
(77 78)
(70 67)
(68 71)
(79 80)
(81 82)
(83 84)
(74 69)
(72 75)
(85 10)
(86 87)
(88 89)
(90 91)
(92 93)
(13 73)
(76 17)
(17 13)
(94 95)
(96 97)
(98 99)
(14 18)
(18 79)
(100 6)
(101 102)
(103 104)
(105 106)
(107 43)
(80 81)
(44 53)
(62 2)
(54 63)
(64 77)
(108 109)
(52 59)
(106 107)
(110 111)
(104 112)
(50 51)
(5 100)
(102 105)
(48 49)
(99 101)
(42 47)
(97 98)
(40 41)
(95 96)
(109 39)
(91 94)
(111 108)
(89 90)
(112 110)
(9 85)
(87 88)
(93 103)
(84 92)
(78 83)
(82 86)
)

// concaveStart mixedStart nonFeatureStart
0 0 19
// internalStart flatStart openStart multipleStart
21 47 47 161
// normals

198
(
(-0.09801732891 -0.9951847081 -0)
(-0.2902846254 -0.9569403514 -0)
(-0.471396745 -0.88192126 -0)
(-0.6343932157 -0.7730105096 -0)
(-0.6343932157 -0.7730105096 0)
(-0.88192126 -0.471396745 -0)
(-0.9569403514 -0.2902846254 -0)
(-0.9951847081 -0.09801732891 -0)
(-0.9951847081 -0.09801732891 0)
(-0.9569403514 0.2902846254 0)
(-0.88192126 0.471396745 0)
(-0.7730105096 0.6343932157 0)
(-0.6343932157 0.7730105096 0)
(-0.471396745 0.88192126 0)
(-0.4713961731 0.8819215657 0)
(-0.09801732891 0.9951847081 0)
(0.09801732891 0.9951847081 0)
(0.2902846254 0.9569403514 0)
(0.2902846254 0.9569403514 -0)
(0.9951847081 0.09801732891 0)
(0.9951847081 -0.09801732891 0)
(0.9569403514 -0.2902846254 0)
(0.88192126 -0.471396745 0)
(0.7730105096 -0.6343932157 0)
(0.6343932157 -0.7730105096 0)
(0.471396745 -0.88192126 0)
(0.2902846254 -0.9569403514 0)
(0.09801732891 -0.9951847081 0)
(-0.6343932157 0.7730105096 -7.362105819e-08)
(-0.7730105096 0.6343932157 -6.04192301e-08)
(0.9569403514 0.2902846254 -4.146980093e-08)
(-0.9951847089 -0.098017321 1.400266647e-08)
(-0.8819210263 0.4713971821 -6.734337816e-08)
(-0.9569403514 0.2902846254 -4.146980093e-08)
(-0.9951847073 0.09801733682 -1.283577966e-08)
(0.8819210263 0.4713971821 -4.489558544e-08)
(-0.9569403514 -0.2902846254 4.146980093e-08)
(-0.9569403241 -0.2902847155 2.764654254e-08)
(-0.9951847081 -0.09801732903 1.283577864e-08)
(-0.9569403514 -0.2902846254 4.146980093e-08)
(-0.9569403514 -0.2902846254 4.146980093e-08)
(-0.8819215657 -0.4713961731 4.489548934e-08)
(-0.8819216377 -0.4713960383 6.734321475e-08)
(0.7730105096 0.6343932157 -6.04192301e-08)
(0.7730105096 0.6343932157 -6.04192301e-08)
(-0.8819209543 -0.471397317 6.734339742e-08)
(-0.8819208822 -0.4713974518 4.489561112e-08)
(-0.7730105096 -0.6343932157 6.04192301e-08)
(-0.7730105096 -0.6343932157 6.04192301e-08)
(-0.6343932157 -0.7730105096 7.362105819e-08)
(-0.6343932157 -0.7730105096 7.362105819e-08)
(-0.471397317 -0.8819209543 8.399362375e-08)
(-0.4713968125 -0.8819212239 -0)
(0.6343932157 0.7730105096 -7.362105819e-08)
(-0.7730105096 -0.6343932157 6.04192301e-08)
(-0.7730105096 -0.6343932157 6.04192301e-08)
(-0.09801732891 -0.9951847081 9.478079586e-08)
(0.09801797132 -0.9951846448 9.478078983e-08)
(0.4713961731 0.8819215657 -8.399368198e-08)
(-0.6343932157 -0.7730105096 7.362105819e-08)
(-0.6343932157 -0.7730105096 7.362105819e-08)
(0.2902846254 -0.9569403514 9.113842623e-08)
(0.2902846254 -0.9569403514 9.113842623e-08)
(0.4713966776 -0.881921296 0)
(0.6343932157 -0.7730105096 7.362105819e-08)
(0.2902846254 0.9569403514 -9.113842623e-08)
(-0.4713961731 -0.8819215657 0)
(-0.4713966776 -0.881921296 8.399365629e-08)
(0.7730105096 -0.6343932157 6.04192301e-08)
(0.8819208822 -0.4713974518 6.734341668e-08)
(0.9569403241 -0.2902847155 4.146981381e-08)
(-0.2902846254 -0.9569403514 9.113842623e-08)
(-0.2902846254 -0.9569403514 9.113842623e-08)
(0.9951847081 -0.09801732891 1.400266759e-08)
(0.9951847089 -0.098017321 1.283577759e-08)
(0.09801732891 0.9951847081 -9.478079586e-08)
(0.9951847081 0.09801732879 -1.283577861e-08)
(0.9569403514 0.2902846254 -4.146980093e-08)
(-0.09801797132 -0.9951846448 1.895615797e-07)
(0.8819215657 0.4713961731 -6.734323401e-08)
(0.7730105096 0.6343932157 -6.04192301e-08)
(0.7730105096 0.6343932157 -6.04192301e-08)
(0.6343932157 0.7730105096 -7.362105819e-08)
(-0.4713961731 0.8819215657 -8.399368198e-08)
(-0.9951847081 0.09801732879 -1.285342034e-08)
(0.9951847073 0.09801733682 -1.400266872e-08)
(-0.2902846254 0.9569403514 -9.113842623e-08)
(-0.09801732891 0.9951847081 -9.478079586e-08)
(-0.9569403514 0.2902846254 -4.146980093e-08)
(0.9951847081 -0.09801732891 1.283577863e-08)
(0.9951847081 -0.09801732903 1.285342037e-08)
(-0.8819215657 0.4713961731 -6.734323401e-08)
(0.9569403514 -0.2902846254 4.146980093e-08)
(-0.7730105096 0.6343932157 -6.04192301e-08)
(0.8819216377 -0.4713960383 4.48954765e-08)
(-0.6343932157 0.7730105096 -7.362105819e-08)
(0.7730105096 -0.6343932157 6.04192301e-08)
(-0.471397317 0.8819209543 -8.399362375e-08)
(0.6343932157 -0.7730105096 7.362105819e-08)
(-0.2902846254 0.9569403514 -9.113842623e-08)
(0.4713968125 -0.8819212239 8.399364943e-08)
(-0.09801732891 0.9951847081 -9.478079586e-08)
(0.2902846254 -0.9569403514 9.113842623e-08)
(0.2902846254 -0.9569403514 9.113842623e-08)
(0.09801732891 0.9951847081 -9.478079586e-08)
(0.2902846254 0.9569403514 -9.113842623e-08)
(0.471397317 0.8819209543 -8.399362375e-08)
(0.09801732891 -0.9951847081 9.478079586e-08)
(-0.4713961731 -0.8819215657 1.906911104e-07)
(0.4713961731 0.8819215657 -8.399368198e-08)
(-0.8819209543 -0.471397317 1.906910483e-07)
(0.8819209543 0.471397317 -6.734339742e-08)
(-0.9569403514 0.2902846254 0)
(0.9569403514 -0.2902846254 2.764653396e-08)
(-0.9569403514 0.2902846254 0)
(0.9569403514 -0.2902846254 4.146980093e-08)
(-0.8819209543 0.471397317 0)
(0.8819209543 -0.471397317 4.489559828e-08)
(-0.8819215657 0.4713961731 1.906911104e-07)
(0.8819215657 -0.4713961731 6.734323401e-08)
(-0.7730105096 0.6343932157 0)
(0.7730105096 -0.6343932157 6.04192301e-08)
(-0.7730105096 0.6343932157 0)
(0.7730105096 -0.6343932157 6.04192301e-08)
(-0.6343932157 0.7730105096 0)
(0.6343932157 -0.7730105096 7.362105819e-08)
(-0.6343932157 0.7730105096 0)
(0.6343932157 -0.7730105096 7.362105819e-08)
(0.4713961731 -0.8819215657 8.399368198e-08)
(-0.471397317 0.8819209543 1.906910483e-07)
(0.471397317 -0.8819209543 0)
(-0.09801732891 0.9951847081 0)
(0.09801732891 -0.9951847081 1.895615917e-07)
(-0.09801732891 0.9951847081 0)
(0.09801732891 -0.9951847081 9.478079586e-08)
(0.09801732891 0.9951847081 -0)
(-0.09801732891 -0.9951847081 9.478079586e-08)
(0.09801732891 0.9951847081 0)
(-0.09801732891 -0.9951847081 9.478079586e-08)
(0.2902846254 0.9569403514 0)
(0.9951847081 0.09801732891 -0)
(-0.9951847081 -0.09801732891 1.285342036e-08)
(0.9951847081 0.09801732891 0)
(-0.9951847081 -0.09801732891 1.283577863e-08)
(0.8819215657 -0.4713961731 1.906911104e-07)
(-0.8819215657 0.4713961731 -6.734323401e-08)
(0.471397317 -0.8819209543 1.906910483e-07)
(-0.471397317 0.8819209543 -8.399362375e-08)
(-0.09801732891 -0.9951847081 0)
(0.09801732891 0.9951847081 -9.478079586e-08)
(-0.09801732891 -0.9951847081 0)
(0.09801732891 0.9951847081 -9.478079586e-08)
(-0.2902846254 -0.9569403514 0)
(0.2902846254 0.9569403514 -9.113842623e-08)
(-0.2902846254 -0.9569403514 0)
(0.2902846254 0.9569403514 -9.113842623e-08)
(-0.471397317 -0.8819209543 0)
(0.471397317 0.8819209543 -8.399362375e-08)
(0.6343932157 0.7730105096 -7.362105819e-08)
(-0.6343932157 -0.7730105096 0)
(0.6343932157 0.7730105096 -7.362105819e-08)
(-0.8819215657 -0.4713961731 0)
(0.8819215657 0.4713961731 -6.734323401e-08)
(-0.9569403514 -0.2902846254 0)
(0.9569403514 0.2902846254 -4.146980093e-08)
(-0.9569403514 -0.2902846254 0)
(0.9569403514 0.2902846254 -4.146980093e-08)
(0.9951847081 0.09801732891 -1.285342036e-08)
(-0.9951847081 -0.09801732891 0)
(0.9951847081 0.09801732891 -1.283577863e-08)
(0.9951847081 -0.09801732891 0)
(-0.9951847081 0.09801732891 -1.400266759e-08)
(0.9951847081 -0.09801732891 0)
(-0.9951847081 0.09801732891 -1.283577863e-08)
(0.9569403514 -0.2902846254 0)
(-0.9569403514 0.2902846254 -4.146980093e-08)
(0.9569403514 -0.2902846254 0)
(-0.9569403514 0.2902846254 -4.146980093e-08)
(0.8819209543 -0.471397317 0)
(-0.8819209543 0.471397317 -4.489559828e-08)
(0.7730105096 -0.6343932157 0)
(-0.7730105096 0.6343932157 -6.04192301e-08)
(0.7730105096 -0.6343932157 0)
(-0.7730105096 0.6343932157 -6.04192301e-08)
(0.6343932157 -0.7730105096 0)
(-0.6343932157 0.7730105096 -7.362105819e-08)
(0.6343932157 -0.7730105096 0)
(-0.6343932157 0.7730105096 -7.362105819e-08)
(0.4713961731 -0.8819215657 0)
(-0.4713961731 0.8819215657 -8.399368198e-08)
(0.2902846254 -0.9569403514 0)
(-0.2902846254 0.9569403514 -9.113842623e-08)
(0.2902846254 -0.9569403514 0)
(-0.2902846254 0.9569403514 -9.113842623e-08)
(0.09801732891 -0.9951847081 0)
(-0.09801732891 0.9951847081 -9.478079586e-08)
(0.09801732891 -0.9951847081 0)
(-0.09801732891 0.9951847081 -9.478079586e-08)
)

// normal volume types

198
(
0
0
0
0
0
0
0
0
0
0
0
0
0
0
0
0
0
0
0
0
0
0
0
0
0
0
0
0
0
0
0
0
0
0
0
0
0
0
0
0
0
0
0
0
0
0
0
0
0
0
0
0
0
0
0
0
0
0
0
0
0
0
0
0
0
0
0
0
0
0
0
0
0
0
0
0
0
0
0
0
0
0
0
0
0
0
0
0
0
0
0
0
0
0
0
0
0
0
0
0
0
0
0
0
0
0
0
0
0
0
0
0
0
0
0
0
0
0
0
0
0
0
0
0
0
0
0
0
0
0
0
0
0
0
0
0
0
0
0
0
0
0
0
0
0
0
0
0
0
0
0
0
0
0
0
0
0
0
0
0
0
0
0
0
0
0
0
0
0
0
0
0
0
0
0
0
0
0
0
0
0
0
0
0
0
0
0
0
0
0
0
0
0
0
0
0
0
0
)

// normalDirections

161
(
2(1 -1)
2(1 -1)
2(1 -1)
2(1 -1)
2(1 -1)
2(1 -1)
2(1 -1)
2(1 -1)
2(1 -1)
2(1 -1)
2(1 -1)
2(1 -1)
2(1 -1)
2(1 -1)
2(1 -1)
2(1 -1)
2(1 -1)
2(1 -1)
2(1 -1)
2(1 -1)
2(1 -1)
2(1 -1)
2(1 -1)
2(1 -1)
2(1 -1)
2(1 -1)
2(1 -1)
2(1 -1)
2(1 -1)
2(1 -1)
2(1 -1)
2(1 -1)
2(1 -1)
2(1 -1)
2(1 -1)
2(1 -1)
2(1 -1)
2(1 -1)
2(1 -1)
2(1 -1)
2(1 -1)
2(1 -1)
2(1 -1)
2(1 -1)
2(1 -1)
2(1 -1)
2(1 -1)
1(1)
1(1)
1(1)
1(1)
1(1)
1(1)
1(1)
1(1)
1(1)
1(1)
1(1)
1(1)
1(1)
1(1)
1(1)
1(1)
1(1)
1(1)
1(1)
1(1)
1(1)
1(1)
1(1)
1(1)
1(1)
1(1)
1(1)
1(1)
1(1)
1(1)
1(1)
1(1)
1(1)
1(1)
1(1)
1(1)
1(1)
1(1)
1(1)
1(1)
1(1)
1(1)
1(1)
1(1)
1(1)
1(1)
1(1)
1(1)
1(1)
1(1)
1(1)
1(1)
1(1)
1(1)
1(1)
1(1)
1(1)
1(1)
1(1)
1(1)
1(1)
1(1)
1(1)
1(1)
1(1)
1(1)
1(1)
1(1)
1(1)
1(1)
1(1)
1(1)
1(1)
1(1)
1(1)
1(1)
1(1)
1(1)
1(1)
1(1)
1(1)
1(1)
1(1)
1(1)
1(1)
1(1)
1(1)
1(1)
1(1)
1(1)
1(1)
1(1)
1(1)
1(1)
1(1)
1(1)
1(1)
1(1)
1(1)
1(1)
1(1)
1(1)
1(1)
1(1)
1(1)
1(1)
1(1)
1(1)
1(1)
1(1)
1(1)
1(1)
1(1)
1(1)
)

// edgeNormals

161
(
2(108 109)
2(110 111)
2(112 113)
2(114 115)
2(116 117)
2(118 119)
2(120 121)
2(122 123)
2(124 125)
2(126 127)
2(14 128)
2(129 130)
2(131 132)
2(133 134)
2(135 136)
2(137 138)
2(139 71)
2(140 141)
2(142 143)
2(144 145)
2(146 147)
2(148 149)
2(150 151)
2(152 153)
2(154 155)
2(156 157)
2(4 158)
2(159 160)
2(161 162)
2(163 164)
2(165 166)
2(8 167)
2(168 169)
2(170 171)
2(172 173)
2(174 175)
2(176 177)
2(178 179)
2(180 181)
2(182 183)
2(184 185)
2(186 187)
2(188 189)
2(190 191)
2(192 193)
2(194 195)
2(196 197)
1(0)
1(1)
1(2)
1(3)
1(4)
1(5)
1(5)
1(6)
1(7)
1(8)
1(9)
1(9)
1(10)
1(11)
1(12)
1(13)
1(14)
1(15)
1(15)
1(16)
1(17)
1(18)
1(18)
1(19)
1(19)
1(20)
1(21)
1(22)
1(23)
1(24)
1(25)
1(26)
1(27)
1(28)
1(29)
1(30)
1(31)
1(32)
1(33)
1(34)
1(35)
1(36)
1(37)
1(38)
1(39)
1(40)
1(41)
1(42)
1(43)
1(44)
1(45)
1(46)
1(47)
1(48)
1(49)
1(50)
1(51)
1(52)
1(53)
1(54)
1(55)
1(56)
1(57)
1(58)
1(59)
1(60)
1(61)
1(62)
1(63)
1(64)
1(65)
1(66)
1(67)
1(67)
1(68)
1(69)
1(70)
1(71)
1(72)
1(73)
1(74)
1(75)
1(76)
1(77)
1(78)
1(79)
1(80)
1(81)
1(82)
1(83)
1(84)
1(85)
1(86)
1(87)
1(88)
1(89)
1(90)
1(91)
1(92)
1(93)
1(94)
1(95)
1(96)
1(97)
1(98)
1(99)
1(100)
1(101)
1(102)
1(103)
1(104)
1(105)
1(106)
1(107)
)

// featurePointNormals

19
(
1(3)
3(4 158 43)
3(110 111 80)
1(5)
1(7)
3(8 167 89)
3(114 115 73)
1(9)
1(13)
3(14 128 102)
3(133 134 61)
1(15)
1(17)
2(18 66)
2(139 71)
3(142 143 39)
1(19)
1(67)
1(71)
)

// featurePointEdges

19
(
2(50 51)
3(26 51 95)
3(1 52 133)
2(52 53)
2(55 56)
3(31 56 142)
3(3 57 126)
2(57 58)
2(62 63)
3(10 63 155)
3(13 64 113)
2(64 65)
2(67 68)
4(68 69 118 120)
3(16 69 124)
3(18 70 91)
2(70 71)
2(119 120)
2(124 125)
)

// regionEdges

114
(
47
48
49
50
51
52
53
54
55
56
57
58
59
60
61
62
63
64
65
66
67
68
69
70
71
72
73
74
75
76
77
78
79
80
81
82
83
84
85
86
87
88
89
90
91
92
93
94
95
96
97
98
99
100
101
102
103
104
105
106
107
108
109
110
111
112
113
114
115
116
117
118
119
120
121
122
123
124
125
126
127
128
129
130
131
132
133
134
135
136
137
138
139
140
141
142
143
144
145
146
147
148
149
150
151
152
153
154
155
156
157
158
159
160
)



// ************************************************************************* //
