/*--------------------------------*- C++ -*----------------------------------*\
| =========                 |                                                 |
| \\      /  F ield         | OpenFOAM: The Open Source CFD Toolbox           |
|  \\    /   O peration     | Version:  v1706                                 |
|   \\  /    A nd           | Web:      www.OpenFOAM.com                      |
|    \\/     M anipulation  |                                                 |
\*---------------------------------------------------------------------------*/
FoamFile
{
    version     2.0;
    format      ascii;
    class       extendedFeatureEdgeMesh;
    location    "constant/extendedFeatureEdgeMesh";
    object      Surface.extendedFeatureEdgeMesh;
}
// * * * * * * * * * * * * * * * * * * * * * * * * * * * * * * * * * * * * * //

// points
8((-20 -20 0) (-20 20 0) (20 20 0) (20 -20 0) (-20 -20 -0.2119995952) (20 -20 -0.2119995952) (20 20 -0.2119995952) (-20 20 -0.2119995952))
// edges

12
(
(1 2)
(0 1)
(3 0)
(2 3)
(4 5)
(5 6)
(6 7)
(7 4)
(1 7)
(6 2)
(3 5)
(4 0)
)

// concaveStart mixedStart nonFeatureStart
0 8 8
// internalStart flatStart openStart multipleStart
0 12 12 12
// normals

12
(
(0 0 -1)
(-0 -1 0)
(1 0 0)
(0 0 -1)
(-0 1 0)
(-1 0 0)
(0 0 1)
(0 1 0)
(-1 0 0)
(0 0 1)
(0 -1 -0)
(1 0 0)
)

// normal volume types

12
(
0
0
0
0
0
0
0
0
0
0
0
0
)

// normalDirections

12
(
2(1 -1)
2(1 -1)
2(1 -1)
2(1 -1)
2(1 -1)
2(1 -1)
2(1 -1)
2(1 -1)
2(1 -1)
2(1 -1)
2(1 -1)
2(1 -1)
)

// edgeNormals

12
(
2(0 1)
2(0 2)
2(3 4)
2(3 5)
2(6 7)
2(6 8)
2(9 10)
2(9 11)
2(1 11)
2(10 5)
2(4 8)
2(7 2)
)

// featurePointNormals

8
(
3(0 2 4)
3(0 1 2)
3(0 1 5)
3(3 4 5)
3(6 7 11)
3(6 7 8)
3(6 8 10)
3(9 10 11)
)

// featurePointEdges

8
(
3(2 11 1)
3(0 8 1)
3(3 9 0)
3(2 10 3)
3(7 11 4)
3(4 10 5)
3(6 9 5)
3(6 8 7)
)

// regionEdges
0()


// ************************************************************************* //
