/*--------------------------------*- C++ -*----------------------------------*\
| =========                 |                                                 |
| \\      /  F ield         | OpenFOAM: The Open Source CFD Toolbox           |
|  \\    /   O peration     | Version:  v1706                                 |
|   \\  /    A nd           | Web:      www.OpenFOAM.com                      |
|    \\/     M anipulation  |                                                 |
\*---------------------------------------------------------------------------*/
FoamFile
{
    version     2.0;
    format      ascii;
    class       polyBoundaryMesh;
    location    "4/polyMesh";
    object      boundary;
}
// * * * * * * * * * * * * * * * * * * * * * * * * * * * * * * * * * * * * * //

6
(
    world
    {
        type            patch;
        nFaces          8568;
        startFace       145172;
    }
    RocketBody
    {
        type            patch;
        nFaces          368;
        startFace       153740;
    }
    RocketFaceDown
    {
        type            patch;
        nFaces          32;
        startFace       154108;
    }
    SheildBody
    {
        type            patch;
        nFaces          1375;
        startFace       154140;
    }
    ShieldFaceOut
    {
        type            patch;
        nFaces          1034;
        startFace       155515;
    }
    Surface
    {
        type            patch;
        nFaces          3031;
        startFace       156549;
    }
)

// ************************************************************************* //
