/*---------------------------------------------------------------------------*\
| =========                 |                                                 |
| \\      /  F ield         | OpenFOAM: The Open Source CFD Toolbox           |
|  \\    /   O peration     | Version:  v1706                                 |
|   \\  /    A nd           | Web:      http://www.openfoam.org               |
|    \\/     M anipulation  |                                                 |
\*---------------------------------------------------------------------------*/
FoamFile
{
    version     2.0;
    format      ascii;
    class       dictionary;
    location    "system";
    object      boundariesDict;
}
// * * * * * * * * * * * * * * * * * * * * * * * * * * * * * * * * * * * * * //

dsmcPatchBoundaries
(
    boundary
    {
        patchBoundaryProperties
        {
            patchName                           RocketFaceDown;
        }

        boundaryModel   dsmcDeletionPatch;

        dsmcDeletionPatchProperties
        {
            allSpecies                yes;
        }
    }

    boundary
    {
        patchBoundaryProperties
        {
            patchName         SheildBody; // wall config (check w sam)
        }

        boundaryModel   dsmcDiffuseWallPatch;

        dsmcDiffuseWallPatchProperties
        {
            velocity 			(0 0 0); // tune temperatures
            temperature			1000;
        }
    }

    boundary
    {
        patchBoundaryProperties
        {
            patchName         RocketBody; // wall config (check w sam)
        }

        boundaryModel   dsmcDiffuseWallPatch;

        dsmcDiffuseWallPatchProperties
        {
            velocity 			(0 0 0); // tune temperatures
            temperature			1000;
        }
    }

    boundary
    {
        patchBoundaryProperties
        {
            patchName         ShieldFaceOut; // wall config (check w sam)
        }

        boundaryModel   dsmcDiffuseWallPatch;

        dsmcDiffuseWallPatchProperties
        {
            velocity 			(0 0 0); // tune temperatures
            temperature			1000;
        }
    }

    boundary
    {
        patchBoundaryProperties
        {
            patchName         Surface; // wall config (check w sam)
        }

        boundaryModel   dsmcDiffuseWallPatch;

        dsmcDiffuseWallPatchProperties
        {
            velocity 			(0 0 0); // tune temperatures
            temperature			1000;
        }
    }

    boundary
    {
        patchBoundaryProperties
        {
            patchName         world; // wall config (check w sam)
        }

        boundaryModel   dsmcDiffuseWallPatch;

        dsmcDiffuseWallPatchProperties
        {
            velocity 			(0 0 0); // tune temperatures
            temperature			1000;
        }
    }
);

dsmcCyclicBoundaries
(

);

dsmcGeneralBoundaries
(
    boundary
    {
        generalBoundaryProperties
        {
            patchName                           world;
        }

        boundaryModel   dsmcFreeStreamInflowPatch;

        dsmcFreeStreamInflowPatchProperties // Probably change these
        {
            typeIds                   (N2 O2);
            velocity			     (6053.4 0 0);
            translationalTemperature	     217.63;
            rotationalTemperature          217.63;
            vibrationalTemperature         217.63;
            electronicTemperature       0;
            numberDensities
            {
                N2            2.318e18;
                O2            6.161e17;
            };
        }
    }

    boundary
    {
        generalBoundaryProperties
        {
            patchName                           RocketFaceDown;
        }

        boundaryModel   dsmcFreeStreamInflowPatch;

        dsmcFreeStreamInflowPatchProperties
        {
            typeIds                   (N2 O2); // Probably change these values
            velocity			     (6053.4 0 0);
            translationalTemperature	     217.63;
            rotationalTemperature          217.63;
            vibrationalTemperature         217.63;
            electronicTemperature       0;
            numberDensities
            {
                N2            2.318e18;
                O2            6.161e17;
            };
        }
    }
);

// ************************************************************************* //
