FoamFile
{
    format      ascii;
    class       dictionary;
    object      createBafflesDict;
}

// Exported by SnappyHexMesh GUI add-on for Blender v1.8
// Source file: C:\Users\shuba\Downloads\pico\pillars_shield_mesh.blend
// Export date: 2024-09-18 19:28:40.187422

internalFacesOnly true;

baffles
{

}
