FoamFile
{
    version         2;
    format          ascii;
    class           dictionary;
    object          surfaceFeaturesDict;
}

// Exported by SnappyHexMesh GUI add-on for Blender v1.8
// Source file: C:\Users\shuba\Downloads\pico\pillars_shield_mesh.blend
// Export date: 2024-09-18 19:28:40.187422


RocketBody.stl
{
    extractionMethod extractFromSurface;
    extractFromSurfaceCoeffs { includedAngle 150; }
    writeObj yes;
}

RocketFaceDown.stl
{
    extractionMethod extractFromSurface;
    extractFromSurfaceCoeffs { includedAngle 150; }
    writeObj yes;
}

SheildBody.stl
{
    extractionMethod extractFromSurface;
    extractFromSurfaceCoeffs { includedAngle 150; }
    writeObj yes;
}

ShieldFaceOut.stl
{
    extractionMethod extractFromSurface;
    extractFromSurfaceCoeffs { includedAngle 150; }
    writeObj yes;
}

Surface.stl
{
    extractionMethod extractFromSurface;
    extractFromSurfaceCoeffs { includedAngle 150; }
    writeObj yes;
}



